# generated using pymatgen
data_O2
_symmetry_space_group_name_H-M   'P 1'
_cell_length_a   30.74200000
_cell_length_b   30.74200000
_cell_length_c   30.74200000
_cell_angle_alpha   90.00000000
_cell_angle_beta   90.00000000
_cell_angle_gamma   90.00000000
_symmetry_Int_Tables_number   1
_chemical_formula_structural   O2
_chemical_formula_sum   O768
_cell_volume   29053.35927849
_cell_formula_units_Z   384
loop_
 _symmetry_equiv_pos_site_id
 _symmetry_equiv_pos_as_xyz
  1  'x, y, z'
loop_
 _atom_site_type_symbol
 _atom_site_label
 _atom_site_symmetry_multiplicity
 _atom_site_fract_x
 _atom_site_fract_y
 _atom_site_fract_z
 _atom_site_occupancy
  O  O0  1  0.06910000  0.15080000  0.23340000  1
  O  O1  1  0.06910000  0.65080000  0.73340000  1
  O  O2  1  0.56910000  0.65080000  0.23340000  1
  O  O3  1  0.56910000  0.15080000  0.73340000  1
  O  O4  1  0.23340000  0.06910000  0.15080000  1
  O  O5  1  0.23340000  0.56910000  0.65080000  1
  O  O6  1  0.73340000  0.56910000  0.15080000  1
  O  O7  1  0.73340000  0.06910000  0.65080000  1
  O  O8  1  0.15080000  0.23340000  0.06910000  1
  O  O9  1  0.15080000  0.73340000  0.56910000  1
  O  O10  1  0.65080000  0.73340000  0.06910000  1
  O  O11  1  0.65080000  0.23340000  0.56910000  1
  O  O12  1  0.06910000  0.15080000  0.76660000  1
  O  O13  1  0.06910000  0.65080000  0.26660000  1
  O  O14  1  0.56910000  0.65080000  0.76660000  1
  O  O15  1  0.56910000  0.15080000  0.26660000  1
  O  O16  1  0.23340000  0.06910000  0.84920000  1
  O  O17  1  0.23340000  0.56910000  0.34920000  1
  O  O18  1  0.73340000  0.56910000  0.84920000  1
  O  O19  1  0.73340000  0.06910000  0.34920000  1
  O  O20  1  0.15080000  0.23340000  0.93090000  1
  O  O21  1  0.15080000  0.73340000  0.43090000  1
  O  O22  1  0.65080000  0.73340000  0.93090000  1
  O  O23  1  0.65080000  0.23340000  0.43090000  1
  O  O24  1  0.93090000  0.15080000  0.23340000  1
  O  O25  1  0.93090000  0.65080000  0.73340000  1
  O  O26  1  0.43090000  0.65080000  0.23340000  1
  O  O27  1  0.43090000  0.15080000  0.73340000  1
  O  O28  1  0.76660000  0.06910000  0.15080000  1
  O  O29  1  0.76660000  0.56910000  0.65080000  1
  O  O30  1  0.26660000  0.56910000  0.15080000  1
  O  O31  1  0.26660000  0.06910000  0.65080000  1
  O  O32  1  0.84920000  0.23340000  0.06910000  1
  O  O33  1  0.84920000  0.73340000  0.56910000  1
  O  O34  1  0.34920000  0.73340000  0.06910000  1
  O  O35  1  0.34920000  0.23340000  0.56910000  1
  O  O36  1  0.93090000  0.15080000  0.76660000  1
  O  O37  1  0.93090000  0.65080000  0.26660000  1
  O  O38  1  0.43090000  0.65080000  0.76660000  1
  O  O39  1  0.43090000  0.15080000  0.26660000  1
  O  O40  1  0.76660000  0.06910000  0.84920000  1
  O  O41  1  0.76660000  0.56910000  0.34920000  1
  O  O42  1  0.26660000  0.56910000  0.84920000  1
  O  O43  1  0.26660000  0.06910000  0.34920000  1
  O  O44  1  0.84920000  0.23340000  0.93090000  1
  O  O45  1  0.84920000  0.73340000  0.43090000  1
  O  O46  1  0.34920000  0.73340000  0.93090000  1
  O  O47  1  0.34920000  0.23340000  0.43090000  1
  O  O48  1  0.15080000  0.06910000  0.23340000  1
  O  O49  1  0.15080000  0.56910000  0.73340000  1
  O  O50  1  0.65080000  0.56910000  0.23340000  1
  O  O51  1  0.65080000  0.06910000  0.73340000  1
  O  O52  1  0.06910000  0.23340000  0.15080000  1
  O  O53  1  0.06910000  0.73340000  0.65080000  1
  O  O54  1  0.56910000  0.73340000  0.15080000  1
  O  O55  1  0.56910000  0.23340000  0.65080000  1
  O  O56  1  0.23340000  0.15080000  0.06910000  1
  O  O57  1  0.23340000  0.65080000  0.56910000  1
  O  O58  1  0.73340000  0.65080000  0.06910000  1
  O  O59  1  0.73340000  0.15080000  0.56910000  1
  O  O60  1  0.15080000  0.06910000  0.76660000  1
  O  O61  1  0.15080000  0.56910000  0.26660000  1
  O  O62  1  0.65080000  0.56910000  0.76660000  1
  O  O63  1  0.65080000  0.06910000  0.26660000  1
  O  O64  1  0.06910000  0.23340000  0.84920000  1
  O  O65  1  0.06910000  0.73340000  0.34920000  1
  O  O66  1  0.56910000  0.73340000  0.84920000  1
  O  O67  1  0.56910000  0.23340000  0.34920000  1
  O  O68  1  0.23340000  0.15080000  0.93090000  1
  O  O69  1  0.23340000  0.65080000  0.43090000  1
  O  O70  1  0.73340000  0.65080000  0.93090000  1
  O  O71  1  0.73340000  0.15080000  0.43090000  1
  O  O72  1  0.15080000  0.93090000  0.23340000  1
  O  O73  1  0.15080000  0.43090000  0.73340000  1
  O  O74  1  0.65080000  0.43090000  0.23340000  1
  O  O75  1  0.65080000  0.93090000  0.73340000  1
  O  O76  1  0.06910000  0.76660000  0.15080000  1
  O  O77  1  0.06910000  0.26660000  0.65080000  1
  O  O78  1  0.56910000  0.26660000  0.15080000  1
  O  O79  1  0.56910000  0.76660000  0.65080000  1
  O  O80  1  0.23340000  0.84920000  0.06910000  1
  O  O81  1  0.23340000  0.34920000  0.56910000  1
  O  O82  1  0.73340000  0.34920000  0.06910000  1
  O  O83  1  0.73340000  0.84920000  0.56910000  1
  O  O84  1  0.15080000  0.93090000  0.76660000  1
  O  O85  1  0.15080000  0.43090000  0.26660000  1
  O  O86  1  0.65080000  0.43090000  0.76660000  1
  O  O87  1  0.65080000  0.93090000  0.26660000  1
  O  O88  1  0.06910000  0.76660000  0.84920000  1
  O  O89  1  0.06910000  0.26660000  0.34920000  1
  O  O90  1  0.56910000  0.26660000  0.84920000  1
  O  O91  1  0.56910000  0.76660000  0.34920000  1
  O  O92  1  0.23340000  0.84920000  0.93090000  1
  O  O93  1  0.23340000  0.34920000  0.43090000  1
  O  O94  1  0.73340000  0.34920000  0.93090000  1
  O  O95  1  0.73340000  0.84920000  0.43090000  1
  O  O96  1  0.93090000  0.84920000  0.76660000  1
  O  O97  1  0.93090000  0.34920000  0.26660000  1
  O  O98  1  0.43090000  0.34920000  0.76660000  1
  O  O99  1  0.43090000  0.84920000  0.26660000  1
  O  O100  1  0.76660000  0.93090000  0.84920000  1
  O  O101  1  0.76660000  0.43090000  0.34920000  1
  O  O102  1  0.26660000  0.43090000  0.84920000  1
  O  O103  1  0.26660000  0.93090000  0.34920000  1
  O  O104  1  0.84920000  0.76660000  0.93090000  1
  O  O105  1  0.84920000  0.26660000  0.43090000  1
  O  O106  1  0.34920000  0.26660000  0.93090000  1
  O  O107  1  0.34920000  0.76660000  0.43090000  1
  O  O108  1  0.93090000  0.84920000  0.23340000  1
  O  O109  1  0.93090000  0.34920000  0.73340000  1
  O  O110  1  0.43090000  0.34920000  0.23340000  1
  O  O111  1  0.43090000  0.84920000  0.73340000  1
  O  O112  1  0.76660000  0.93090000  0.15080000  1
  O  O113  1  0.76660000  0.43090000  0.65080000  1
  O  O114  1  0.26660000  0.43090000  0.15080000  1
  O  O115  1  0.26660000  0.93090000  0.65080000  1
  O  O116  1  0.84920000  0.76660000  0.06910000  1
  O  O117  1  0.84920000  0.26660000  0.56910000  1
  O  O118  1  0.34920000  0.26660000  0.06910000  1
  O  O119  1  0.34920000  0.76660000  0.56910000  1
  O  O120  1  0.06910000  0.84920000  0.76660000  1
  O  O121  1  0.06910000  0.34920000  0.26660000  1
  O  O122  1  0.56910000  0.34920000  0.76660000  1
  O  O123  1  0.56910000  0.84920000  0.26660000  1
  O  O124  1  0.23340000  0.93090000  0.84920000  1
  O  O125  1  0.23340000  0.43090000  0.34920000  1
  O  O126  1  0.73340000  0.43090000  0.84920000  1
  O  O127  1  0.73340000  0.93090000  0.34920000  1
  O  O128  1  0.15080000  0.76660000  0.93090000  1
  O  O129  1  0.15080000  0.26660000  0.43090000  1
  O  O130  1  0.65080000  0.26660000  0.93090000  1
  O  O131  1  0.65080000  0.76660000  0.43090000  1
  O  O132  1  0.06910000  0.84920000  0.23340000  1
  O  O133  1  0.06910000  0.34920000  0.73340000  1
  O  O134  1  0.56910000  0.34920000  0.23340000  1
  O  O135  1  0.56910000  0.84920000  0.73340000  1
  O  O136  1  0.23340000  0.93090000  0.15080000  1
  O  O137  1  0.23340000  0.43090000  0.65080000  1
  O  O138  1  0.73340000  0.43090000  0.15080000  1
  O  O139  1  0.73340000  0.93090000  0.65080000  1
  O  O140  1  0.15080000  0.76660000  0.06910000  1
  O  O141  1  0.15080000  0.26660000  0.56910000  1
  O  O142  1  0.65080000  0.26660000  0.06910000  1
  O  O143  1  0.65080000  0.76660000  0.56910000  1
  O  O144  1  0.84920000  0.93090000  0.76660000  1
  O  O145  1  0.84920000  0.43090000  0.26660000  1
  O  O146  1  0.34920000  0.43090000  0.76660000  1
  O  O147  1  0.34920000  0.93090000  0.26660000  1
  O  O148  1  0.93090000  0.76660000  0.84920000  1
  O  O149  1  0.93090000  0.26660000  0.34920000  1
  O  O150  1  0.43090000  0.26660000  0.84920000  1
  O  O151  1  0.43090000  0.76660000  0.34920000  1
  O  O152  1  0.76660000  0.84920000  0.93090000  1
  O  O153  1  0.76660000  0.34920000  0.43090000  1
  O  O154  1  0.26660000  0.34920000  0.93090000  1
  O  O155  1  0.26660000  0.84920000  0.43090000  1
  O  O156  1  0.84920000  0.93090000  0.23340000  1
  O  O157  1  0.84920000  0.43090000  0.73340000  1
  O  O158  1  0.34920000  0.43090000  0.23340000  1
  O  O159  1  0.34920000  0.93090000  0.73340000  1
  O  O160  1  0.93090000  0.76660000  0.15080000  1
  O  O161  1  0.93090000  0.26660000  0.65080000  1
  O  O162  1  0.43090000  0.26660000  0.15080000  1
  O  O163  1  0.43090000  0.76660000  0.65080000  1
  O  O164  1  0.76660000  0.84920000  0.06910000  1
  O  O165  1  0.76660000  0.34920000  0.56910000  1
  O  O166  1  0.26660000  0.34920000  0.06910000  1
  O  O167  1  0.26660000  0.84920000  0.56910000  1
  O  O168  1  0.84920000  0.06910000  0.76660000  1
  O  O169  1  0.84920000  0.56910000  0.26660000  1
  O  O170  1  0.34920000  0.56910000  0.76660000  1
  O  O171  1  0.34920000  0.06910000  0.26660000  1
  O  O172  1  0.93090000  0.23340000  0.84920000  1
  O  O173  1  0.93090000  0.73340000  0.34920000  1
  O  O174  1  0.43090000  0.73340000  0.84920000  1
  O  O175  1  0.43090000  0.23340000  0.34920000  1
  O  O176  1  0.76660000  0.15080000  0.93090000  1
  O  O177  1  0.76660000  0.65080000  0.43090000  1
  O  O178  1  0.26660000  0.65080000  0.93090000  1
  O  O179  1  0.26660000  0.15080000  0.43090000  1
  O  O180  1  0.84920000  0.06910000  0.23340000  1
  O  O181  1  0.84920000  0.56910000  0.73340000  1
  O  O182  1  0.34920000  0.56910000  0.23340000  1
  O  O183  1  0.34920000  0.06910000  0.73340000  1
  O  O184  1  0.93090000  0.23340000  0.15080000  1
  O  O185  1  0.93090000  0.73340000  0.65080000  1
  O  O186  1  0.43090000  0.73340000  0.15080000  1
  O  O187  1  0.43090000  0.23340000  0.65080000  1
  O  O188  1  0.76660000  0.15080000  0.06910000  1
  O  O189  1  0.76660000  0.65080000  0.56910000  1
  O  O190  1  0.26660000  0.65080000  0.06910000  1
  O  O191  1  0.26660000  0.15080000  0.56910000  1
  O  O192  1  0.21120000  0.21120000  0.12530000  1
  O  O193  1  0.21120000  0.71120000  0.62530000  1
  O  O194  1  0.71120000  0.71120000  0.12530000  1
  O  O195  1  0.71120000  0.21120000  0.62530000  1
  O  O196  1  0.12530000  0.21120000  0.21120000  1
  O  O197  1  0.12530000  0.71120000  0.71120000  1
  O  O198  1  0.62530000  0.71120000  0.21120000  1
  O  O199  1  0.62530000  0.21120000  0.71120000  1
  O  O200  1  0.21120000  0.12530000  0.21120000  1
  O  O201  1  0.21120000  0.62530000  0.71120000  1
  O  O202  1  0.71120000  0.62530000  0.21120000  1
  O  O203  1  0.71120000  0.12530000  0.71120000  1
  O  O204  1  0.21120000  0.21120000  0.87470000  1
  O  O205  1  0.21120000  0.71120000  0.37470000  1
  O  O206  1  0.71120000  0.71120000  0.87470000  1
  O  O207  1  0.71120000  0.21120000  0.37470000  1
  O  O208  1  0.12530000  0.21120000  0.78880000  1
  O  O209  1  0.12530000  0.71120000  0.28880000  1
  O  O210  1  0.62530000  0.71120000  0.78880000  1
  O  O211  1  0.62530000  0.21120000  0.28880000  1
  O  O212  1  0.21120000  0.12530000  0.78880000  1
  O  O213  1  0.21120000  0.62530000  0.28880000  1
  O  O214  1  0.71120000  0.62530000  0.78880000  1
  O  O215  1  0.71120000  0.12530000  0.28880000  1
  O  O216  1  0.78880000  0.21120000  0.12530000  1
  O  O217  1  0.78880000  0.71120000  0.62530000  1
  O  O218  1  0.28880000  0.71120000  0.12530000  1
  O  O219  1  0.28880000  0.21120000  0.62530000  1
  O  O220  1  0.87470000  0.21120000  0.21120000  1
  O  O221  1  0.87470000  0.71120000  0.71120000  1
  O  O222  1  0.37470000  0.71120000  0.21120000  1
  O  O223  1  0.37470000  0.21120000  0.71120000  1
  O  O224  1  0.78880000  0.12530000  0.21120000  1
  O  O225  1  0.78880000  0.62530000  0.71120000  1
  O  O226  1  0.28880000  0.62530000  0.21120000  1
  O  O227  1  0.28880000  0.12530000  0.71120000  1
  O  O228  1  0.78880000  0.21120000  0.87470000  1
  O  O229  1  0.78880000  0.71120000  0.37470000  1
  O  O230  1  0.28880000  0.71120000  0.87470000  1
  O  O231  1  0.28880000  0.21120000  0.37470000  1
  O  O232  1  0.87470000  0.21120000  0.78880000  1
  O  O233  1  0.87470000  0.71120000  0.28880000  1
  O  O234  1  0.37470000  0.71120000  0.78880000  1
  O  O235  1  0.37470000  0.21120000  0.28880000  1
  O  O236  1  0.78880000  0.12530000  0.78880000  1
  O  O237  1  0.78880000  0.62530000  0.28880000  1
  O  O238  1  0.28880000  0.62530000  0.78880000  1
  O  O239  1  0.28880000  0.12530000  0.28880000  1
  O  O240  1  0.21120000  0.78880000  0.12530000  1
  O  O241  1  0.21120000  0.28880000  0.62530000  1
  O  O242  1  0.71120000  0.28880000  0.12530000  1
  O  O243  1  0.71120000  0.78880000  0.62530000  1
  O  O244  1  0.21120000  0.87470000  0.21120000  1
  O  O245  1  0.21120000  0.37470000  0.71120000  1
  O  O246  1  0.71120000  0.37470000  0.21120000  1
  O  O247  1  0.71120000  0.87470000  0.71120000  1
  O  O248  1  0.12530000  0.78880000  0.21120000  1
  O  O249  1  0.12530000  0.28880000  0.71120000  1
  O  O250  1  0.62530000  0.28880000  0.21120000  1
  O  O251  1  0.62530000  0.78880000  0.71120000  1
  O  O252  1  0.21120000  0.78880000  0.87470000  1
  O  O253  1  0.21120000  0.28880000  0.37470000  1
  O  O254  1  0.71120000  0.28880000  0.87470000  1
  O  O255  1  0.71120000  0.78880000  0.37470000  1
  O  O256  1  0.21120000  0.87470000  0.78880000  1
  O  O257  1  0.21120000  0.37470000  0.28880000  1
  O  O258  1  0.71120000  0.37470000  0.78880000  1
  O  O259  1  0.71120000  0.87470000  0.28880000  1
  O  O260  1  0.12530000  0.78880000  0.78880000  1
  O  O261  1  0.12530000  0.28880000  0.28880000  1
  O  O262  1  0.62530000  0.28880000  0.78880000  1
  O  O263  1  0.62530000  0.78880000  0.28880000  1
  O  O264  1  0.78880000  0.78880000  0.87470000  1
  O  O265  1  0.78880000  0.28880000  0.37470000  1
  O  O266  1  0.28880000  0.28880000  0.87470000  1
  O  O267  1  0.28880000  0.78880000  0.37470000  1
  O  O268  1  0.87470000  0.78880000  0.78880000  1
  O  O269  1  0.87470000  0.28880000  0.28880000  1
  O  O270  1  0.37470000  0.28880000  0.78880000  1
  O  O271  1  0.37470000  0.78880000  0.28880000  1
  O  O272  1  0.78880000  0.87470000  0.78880000  1
  O  O273  1  0.78880000  0.37470000  0.28880000  1
  O  O274  1  0.28880000  0.37470000  0.78880000  1
  O  O275  1  0.28880000  0.87470000  0.28880000  1
  O  O276  1  0.78880000  0.78880000  0.12530000  1
  O  O277  1  0.78880000  0.28880000  0.62530000  1
  O  O278  1  0.28880000  0.28880000  0.12530000  1
  O  O279  1  0.28880000  0.78880000  0.62530000  1
  O  O280  1  0.87470000  0.78880000  0.21120000  1
  O  O281  1  0.87470000  0.28880000  0.71120000  1
  O  O282  1  0.37470000  0.28880000  0.21120000  1
  O  O283  1  0.37470000  0.78880000  0.71120000  1
  O  O284  1  0.78880000  0.87470000  0.21120000  1
  O  O285  1  0.78880000  0.37470000  0.71120000  1
  O  O286  1  0.28880000  0.37470000  0.21120000  1
  O  O287  1  0.28880000  0.87470000  0.71120000  1
  O  O288  1  0.20920000  0.20920000  0.40580000  1
  O  O289  1  0.20920000  0.70920000  0.90580000  1
  O  O290  1  0.70920000  0.70920000  0.40580000  1
  O  O291  1  0.70920000  0.20920000  0.90580000  1
  O  O292  1  0.40580000  0.20920000  0.20920000  1
  O  O293  1  0.40580000  0.70920000  0.70920000  1
  O  O294  1  0.90580000  0.70920000  0.20920000  1
  O  O295  1  0.90580000  0.20920000  0.70920000  1
  O  O296  1  0.20920000  0.40580000  0.20920000  1
  O  O297  1  0.20920000  0.90580000  0.70920000  1
  O  O298  1  0.70920000  0.90580000  0.20920000  1
  O  O299  1  0.70920000  0.40580000  0.70920000  1
  O  O300  1  0.20920000  0.20920000  0.59420000  1
  O  O301  1  0.20920000  0.70920000  0.09420000  1
  O  O302  1  0.70920000  0.70920000  0.59420000  1
  O  O303  1  0.70920000  0.20920000  0.09420000  1
  O  O304  1  0.40580000  0.20920000  0.79080000  1
  O  O305  1  0.40580000  0.70920000  0.29080000  1
  O  O306  1  0.90580000  0.70920000  0.79080000  1
  O  O307  1  0.90580000  0.20920000  0.29080000  1
  O  O308  1  0.20920000  0.40580000  0.79080000  1
  O  O309  1  0.20920000  0.90580000  0.29080000  1
  O  O310  1  0.70920000  0.90580000  0.79080000  1
  O  O311  1  0.70920000  0.40580000  0.29080000  1
  O  O312  1  0.79080000  0.20920000  0.40580000  1
  O  O313  1  0.79080000  0.70920000  0.90580000  1
  O  O314  1  0.29080000  0.70920000  0.40580000  1
  O  O315  1  0.29080000  0.20920000  0.90580000  1
  O  O316  1  0.59420000  0.20920000  0.20920000  1
  O  O317  1  0.59420000  0.70920000  0.70920000  1
  O  O318  1  0.09420000  0.70920000  0.20920000  1
  O  O319  1  0.09420000  0.20920000  0.70920000  1
  O  O320  1  0.79080000  0.40580000  0.20920000  1
  O  O321  1  0.79080000  0.90580000  0.70920000  1
  O  O322  1  0.29080000  0.90580000  0.20920000  1
  O  O323  1  0.29080000  0.40580000  0.70920000  1
  O  O324  1  0.79080000  0.20920000  0.59420000  1
  O  O325  1  0.79080000  0.70920000  0.09420000  1
  O  O326  1  0.29080000  0.70920000  0.59420000  1
  O  O327  1  0.29080000  0.20920000  0.09420000  1
  O  O328  1  0.59420000  0.20920000  0.79080000  1
  O  O329  1  0.59420000  0.70920000  0.29080000  1
  O  O330  1  0.09420000  0.70920000  0.79080000  1
  O  O331  1  0.09420000  0.20920000  0.29080000  1
  O  O332  1  0.79080000  0.40580000  0.79080000  1
  O  O333  1  0.79080000  0.90580000  0.29080000  1
  O  O334  1  0.29080000  0.90580000  0.79080000  1
  O  O335  1  0.29080000  0.40580000  0.29080000  1
  O  O336  1  0.20920000  0.79080000  0.40580000  1
  O  O337  1  0.20920000  0.29080000  0.90580000  1
  O  O338  1  0.70920000  0.29080000  0.40580000  1
  O  O339  1  0.70920000  0.79080000  0.90580000  1
  O  O340  1  0.20920000  0.59420000  0.20920000  1
  O  O341  1  0.20920000  0.09420000  0.70920000  1
  O  O342  1  0.70920000  0.09420000  0.20920000  1
  O  O343  1  0.70920000  0.59420000  0.70920000  1
  O  O344  1  0.40580000  0.79080000  0.20920000  1
  O  O345  1  0.40580000  0.29080000  0.70920000  1
  O  O346  1  0.90580000  0.29080000  0.20920000  1
  O  O347  1  0.90580000  0.79080000  0.70920000  1
  O  O348  1  0.20920000  0.79080000  0.59420000  1
  O  O349  1  0.20920000  0.29080000  0.09420000  1
  O  O350  1  0.70920000  0.29080000  0.59420000  1
  O  O351  1  0.70920000  0.79080000  0.09420000  1
  O  O352  1  0.20920000  0.59420000  0.79080000  1
  O  O353  1  0.20920000  0.09420000  0.29080000  1
  O  O354  1  0.70920000  0.09420000  0.79080000  1
  O  O355  1  0.70920000  0.59420000  0.29080000  1
  O  O356  1  0.40580000  0.79080000  0.79080000  1
  O  O357  1  0.40580000  0.29080000  0.29080000  1
  O  O358  1  0.90580000  0.29080000  0.79080000  1
  O  O359  1  0.90580000  0.79080000  0.29080000  1
  O  O360  1  0.79080000  0.79080000  0.59420000  1
  O  O361  1  0.79080000  0.29080000  0.09420000  1
  O  O362  1  0.29080000  0.29080000  0.59420000  1
  O  O363  1  0.29080000  0.79080000  0.09420000  1
  O  O364  1  0.59420000  0.79080000  0.79080000  1
  O  O365  1  0.59420000  0.29080000  0.29080000  1
  O  O366  1  0.09420000  0.29080000  0.79080000  1
  O  O367  1  0.09420000  0.79080000  0.29080000  1
  O  O368  1  0.79080000  0.59420000  0.79080000  1
  O  O369  1  0.79080000  0.09420000  0.29080000  1
  O  O370  1  0.29080000  0.09420000  0.79080000  1
  O  O371  1  0.29080000  0.59420000  0.29080000  1
  O  O372  1  0.79080000  0.79080000  0.40580000  1
  O  O373  1  0.79080000  0.29080000  0.90580000  1
  O  O374  1  0.29080000  0.29080000  0.40580000  1
  O  O375  1  0.29080000  0.79080000  0.90580000  1
  O  O376  1  0.59420000  0.79080000  0.20920000  1
  O  O377  1  0.59420000  0.29080000  0.70920000  1
  O  O378  1  0.09420000  0.29080000  0.20920000  1
  O  O379  1  0.09420000  0.79080000  0.70920000  1
  O  O380  1  0.79080000  0.59420000  0.20920000  1
  O  O381  1  0.79080000  0.09420000  0.70920000  1
  O  O382  1  0.29080000  0.09420000  0.20920000  1
  O  O383  1  0.29080000  0.59420000  0.70920000  1
  O  O384  1  0.14870000  0.14870000  0.26470000  1
  O  O385  1  0.14870000  0.64870000  0.76470000  1
  O  O386  1  0.64870000  0.64870000  0.26470000  1
  O  O387  1  0.64870000  0.14870000  0.76470000  1
  O  O388  1  0.26470000  0.14870000  0.14870000  1
  O  O389  1  0.26470000  0.64870000  0.64870000  1
  O  O390  1  0.76470000  0.64870000  0.14870000  1
  O  O391  1  0.76470000  0.14870000  0.64870000  1
  O  O392  1  0.14870000  0.26470000  0.14870000  1
  O  O393  1  0.14870000  0.76470000  0.64870000  1
  O  O394  1  0.64870000  0.76470000  0.14870000  1
  O  O395  1  0.64870000  0.26470000  0.64870000  1
  O  O396  1  0.14870000  0.14870000  0.73530000  1
  O  O397  1  0.14870000  0.64870000  0.23530000  1
  O  O398  1  0.64870000  0.64870000  0.73530000  1
  O  O399  1  0.64870000  0.14870000  0.23530000  1
  O  O400  1  0.26470000  0.14870000  0.85130000  1
  O  O401  1  0.26470000  0.64870000  0.35130000  1
  O  O402  1  0.76470000  0.64870000  0.85130000  1
  O  O403  1  0.76470000  0.14870000  0.35130000  1
  O  O404  1  0.14870000  0.26470000  0.85130000  1
  O  O405  1  0.14870000  0.76470000  0.35130000  1
  O  O406  1  0.64870000  0.76470000  0.85130000  1
  O  O407  1  0.64870000  0.26470000  0.35130000  1
  O  O408  1  0.85130000  0.14870000  0.26470000  1
  O  O409  1  0.85130000  0.64870000  0.76470000  1
  O  O410  1  0.35130000  0.64870000  0.26470000  1
  O  O411  1  0.35130000  0.14870000  0.76470000  1
  O  O412  1  0.73530000  0.14870000  0.14870000  1
  O  O413  1  0.73530000  0.64870000  0.64870000  1
  O  O414  1  0.23530000  0.64870000  0.14870000  1
  O  O415  1  0.23530000  0.14870000  0.64870000  1
  O  O416  1  0.85130000  0.26470000  0.14870000  1
  O  O417  1  0.85130000  0.76470000  0.64870000  1
  O  O418  1  0.35130000  0.76470000  0.14870000  1
  O  O419  1  0.35130000  0.26470000  0.64870000  1
  O  O420  1  0.85130000  0.14870000  0.73530000  1
  O  O421  1  0.85130000  0.64870000  0.23530000  1
  O  O422  1  0.35130000  0.64870000  0.73530000  1
  O  O423  1  0.35130000  0.14870000  0.23530000  1
  O  O424  1  0.73530000  0.14870000  0.85130000  1
  O  O425  1  0.73530000  0.64870000  0.35130000  1
  O  O426  1  0.23530000  0.64870000  0.85130000  1
  O  O427  1  0.23530000  0.14870000  0.35130000  1
  O  O428  1  0.85130000  0.26470000  0.85130000  1
  O  O429  1  0.85130000  0.76470000  0.35130000  1
  O  O430  1  0.35130000  0.76470000  0.85130000  1
  O  O431  1  0.35130000  0.26470000  0.35130000  1
  O  O432  1  0.14870000  0.85130000  0.26470000  1
  O  O433  1  0.14870000  0.35130000  0.76470000  1
  O  O434  1  0.64870000  0.35130000  0.26470000  1
  O  O435  1  0.64870000  0.85130000  0.76470000  1
  O  O436  1  0.14870000  0.73530000  0.14870000  1
  O  O437  1  0.14870000  0.23530000  0.64870000  1
  O  O438  1  0.64870000  0.23530000  0.14870000  1
  O  O439  1  0.64870000  0.73530000  0.64870000  1
  O  O440  1  0.26470000  0.85130000  0.14870000  1
  O  O441  1  0.26470000  0.35130000  0.64870000  1
  O  O442  1  0.76470000  0.35130000  0.14870000  1
  O  O443  1  0.76470000  0.85130000  0.64870000  1
  O  O444  1  0.14870000  0.85130000  0.73530000  1
  O  O445  1  0.14870000  0.35130000  0.23530000  1
  O  O446  1  0.64870000  0.35130000  0.73530000  1
  O  O447  1  0.64870000  0.85130000  0.23530000  1
  O  O448  1  0.14870000  0.73530000  0.85130000  1
  O  O449  1  0.14870000  0.23530000  0.35130000  1
  O  O450  1  0.64870000  0.23530000  0.85130000  1
  O  O451  1  0.64870000  0.73530000  0.35130000  1
  O  O452  1  0.26470000  0.85130000  0.85130000  1
  O  O453  1  0.26470000  0.35130000  0.35130000  1
  O  O454  1  0.76470000  0.35130000  0.85130000  1
  O  O455  1  0.76470000  0.85130000  0.35130000  1
  O  O456  1  0.85130000  0.85130000  0.73530000  1
  O  O457  1  0.85130000  0.35130000  0.23530000  1
  O  O458  1  0.35130000  0.35130000  0.73530000  1
  O  O459  1  0.35130000  0.85130000  0.23530000  1
  O  O460  1  0.73530000  0.85130000  0.85130000  1
  O  O461  1  0.73530000  0.35130000  0.35130000  1
  O  O462  1  0.23530000  0.35130000  0.85130000  1
  O  O463  1  0.23530000  0.85130000  0.35130000  1
  O  O464  1  0.85130000  0.73530000  0.85130000  1
  O  O465  1  0.85130000  0.23530000  0.35130000  1
  O  O466  1  0.35130000  0.23530000  0.85130000  1
  O  O467  1  0.35130000  0.73530000  0.35130000  1
  O  O468  1  0.85130000  0.85130000  0.26470000  1
  O  O469  1  0.85130000  0.35130000  0.76470000  1
  O  O470  1  0.35130000  0.35130000  0.26470000  1
  O  O471  1  0.35130000  0.85130000  0.76470000  1
  O  O472  1  0.73530000  0.85130000  0.14870000  1
  O  O473  1  0.73530000  0.35130000  0.64870000  1
  O  O474  1  0.23530000  0.35130000  0.14870000  1
  O  O475  1  0.23530000  0.85130000  0.64870000  1
  O  O476  1  0.85130000  0.73530000  0.14870000  1
  O  O477  1  0.85130000  0.23530000  0.64870000  1
  O  O478  1  0.35130000  0.23530000  0.14870000  1
  O  O479  1  0.35130000  0.73530000  0.64870000  1
  O  O480  1  0.14890000  0.14890000  0.05580000  1
  O  O481  1  0.14890000  0.64890000  0.55580000  1
  O  O482  1  0.64890000  0.64890000  0.05580000  1
  O  O483  1  0.64890000  0.14890000  0.55580000  1
  O  O484  1  0.05580000  0.14890000  0.14890000  1
  O  O485  1  0.05580000  0.64890000  0.64890000  1
  O  O486  1  0.55580000  0.64890000  0.14890000  1
  O  O487  1  0.55580000  0.14890000  0.64890000  1
  O  O488  1  0.14890000  0.05580000  0.14890000  1
  O  O489  1  0.14890000  0.55580000  0.64890000  1
  O  O490  1  0.64890000  0.55580000  0.14890000  1
  O  O491  1  0.64890000  0.05580000  0.64890000  1
  O  O492  1  0.14890000  0.14890000  0.94420000  1
  O  O493  1  0.14890000  0.64890000  0.44420000  1
  O  O494  1  0.64890000  0.64890000  0.94420000  1
  O  O495  1  0.64890000  0.14890000  0.44420000  1
  O  O496  1  0.05580000  0.14890000  0.85110000  1
  O  O497  1  0.05580000  0.64890000  0.35110000  1
  O  O498  1  0.55580000  0.64890000  0.85110000  1
  O  O499  1  0.55580000  0.14890000  0.35110000  1
  O  O500  1  0.14890000  0.05580000  0.85110000  1
  O  O501  1  0.14890000  0.55580000  0.35110000  1
  O  O502  1  0.64890000  0.55580000  0.85110000  1
  O  O503  1  0.64890000  0.05580000  0.35110000  1
  O  O504  1  0.85110000  0.14890000  0.05580000  1
  O  O505  1  0.85110000  0.64890000  0.55580000  1
  O  O506  1  0.35110000  0.64890000  0.05580000  1
  O  O507  1  0.35110000  0.14890000  0.55580000  1
  O  O508  1  0.94420000  0.14890000  0.14890000  1
  O  O509  1  0.94420000  0.64890000  0.64890000  1
  O  O510  1  0.44420000  0.64890000  0.14890000  1
  O  O511  1  0.44420000  0.14890000  0.64890000  1
  O  O512  1  0.85110000  0.05580000  0.14890000  1
  O  O513  1  0.85110000  0.55580000  0.64890000  1
  O  O514  1  0.35110000  0.55580000  0.14890000  1
  O  O515  1  0.35110000  0.05580000  0.64890000  1
  O  O516  1  0.85110000  0.14890000  0.94420000  1
  O  O517  1  0.85110000  0.64890000  0.44420000  1
  O  O518  1  0.35110000  0.64890000  0.94420000  1
  O  O519  1  0.35110000  0.14890000  0.44420000  1
  O  O520  1  0.94420000  0.14890000  0.85110000  1
  O  O521  1  0.94420000  0.64890000  0.35110000  1
  O  O522  1  0.44420000  0.64890000  0.85110000  1
  O  O523  1  0.44420000  0.14890000  0.35110000  1
  O  O524  1  0.85110000  0.05580000  0.85110000  1
  O  O525  1  0.85110000  0.55580000  0.35110000  1
  O  O526  1  0.35110000  0.55580000  0.85110000  1
  O  O527  1  0.35110000  0.05580000  0.35110000  1
  O  O528  1  0.14890000  0.85110000  0.05580000  1
  O  O529  1  0.14890000  0.35110000  0.55580000  1
  O  O530  1  0.64890000  0.35110000  0.05580000  1
  O  O531  1  0.64890000  0.85110000  0.55580000  1
  O  O532  1  0.14890000  0.94420000  0.14890000  1
  O  O533  1  0.14890000  0.44420000  0.64890000  1
  O  O534  1  0.64890000  0.44420000  0.14890000  1
  O  O535  1  0.64890000  0.94420000  0.64890000  1
  O  O536  1  0.05580000  0.85110000  0.14890000  1
  O  O537  1  0.05580000  0.35110000  0.64890000  1
  O  O538  1  0.55580000  0.35110000  0.14890000  1
  O  O539  1  0.55580000  0.85110000  0.64890000  1
  O  O540  1  0.14890000  0.85110000  0.94420000  1
  O  O541  1  0.14890000  0.35110000  0.44420000  1
  O  O542  1  0.64890000  0.35110000  0.94420000  1
  O  O543  1  0.64890000  0.85110000  0.44420000  1
  O  O544  1  0.14890000  0.94420000  0.85110000  1
  O  O545  1  0.14890000  0.44420000  0.35110000  1
  O  O546  1  0.64890000  0.44420000  0.85110000  1
  O  O547  1  0.64890000  0.94420000  0.35110000  1
  O  O548  1  0.05580000  0.85110000  0.85110000  1
  O  O549  1  0.05580000  0.35110000  0.35110000  1
  O  O550  1  0.55580000  0.35110000  0.85110000  1
  O  O551  1  0.55580000  0.85110000  0.35110000  1
  O  O552  1  0.85110000  0.85110000  0.94420000  1
  O  O553  1  0.85110000  0.35110000  0.44420000  1
  O  O554  1  0.35110000  0.35110000  0.94420000  1
  O  O555  1  0.35110000  0.85110000  0.44420000  1
  O  O556  1  0.94420000  0.85110000  0.85110000  1
  O  O557  1  0.94420000  0.35110000  0.35110000  1
  O  O558  1  0.44420000  0.35110000  0.85110000  1
  O  O559  1  0.44420000  0.85110000  0.35110000  1
  O  O560  1  0.85110000  0.94420000  0.85110000  1
  O  O561  1  0.85110000  0.44420000  0.35110000  1
  O  O562  1  0.35110000  0.44420000  0.85110000  1
  O  O563  1  0.35110000  0.94420000  0.35110000  1
  O  O564  1  0.85110000  0.85110000  0.05580000  1
  O  O565  1  0.85110000  0.35110000  0.55580000  1
  O  O566  1  0.35110000  0.35110000  0.05580000  1
  O  O567  1  0.35110000  0.85110000  0.55580000  1
  O  O568  1  0.94420000  0.85110000  0.14890000  1
  O  O569  1  0.94420000  0.35110000  0.64890000  1
  O  O570  1  0.44420000  0.35110000  0.14890000  1
  O  O571  1  0.44420000  0.85110000  0.64890000  1
  O  O572  1  0.85110000  0.94420000  0.14890000  1
  O  O573  1  0.85110000  0.44420000  0.64890000  1
  O  O574  1  0.35110000  0.44420000  0.14890000  1
  O  O575  1  0.35110000  0.94420000  0.64890000  1
  O  O576  1  0.07730000  0.07730000  0.19040000  1
  O  O577  1  0.07730000  0.57730000  0.69040000  1
  O  O578  1  0.57730000  0.57730000  0.19040000  1
  O  O579  1  0.57730000  0.07730000  0.69040000  1
  O  O580  1  0.19040000  0.07730000  0.07730000  1
  O  O581  1  0.19040000  0.57730000  0.57730000  1
  O  O582  1  0.69040000  0.57730000  0.07730000  1
  O  O583  1  0.69040000  0.07730000  0.57730000  1
  O  O584  1  0.07730000  0.19040000  0.07730000  1
  O  O585  1  0.07730000  0.69040000  0.57730000  1
  O  O586  1  0.57730000  0.69040000  0.07730000  1
  O  O587  1  0.57730000  0.19040000  0.57730000  1
  O  O588  1  0.07730000  0.07730000  0.80960000  1
  O  O589  1  0.07730000  0.57730000  0.30960000  1
  O  O590  1  0.57730000  0.57730000  0.80960000  1
  O  O591  1  0.57730000  0.07730000  0.30960000  1
  O  O592  1  0.19040000  0.07730000  0.92270000  1
  O  O593  1  0.19040000  0.57730000  0.42270000  1
  O  O594  1  0.69040000  0.57730000  0.92270000  1
  O  O595  1  0.69040000  0.07730000  0.42270000  1
  O  O596  1  0.07730000  0.19040000  0.92270000  1
  O  O597  1  0.07730000  0.69040000  0.42270000  1
  O  O598  1  0.57730000  0.69040000  0.92270000  1
  O  O599  1  0.57730000  0.19040000  0.42270000  1
  O  O600  1  0.92270000  0.07730000  0.19040000  1
  O  O601  1  0.92270000  0.57730000  0.69040000  1
  O  O602  1  0.42270000  0.57730000  0.19040000  1
  O  O603  1  0.42270000  0.07730000  0.69040000  1
  O  O604  1  0.80960000  0.07730000  0.07730000  1
  O  O605  1  0.80960000  0.57730000  0.57730000  1
  O  O606  1  0.30960000  0.57730000  0.07730000  1
  O  O607  1  0.30960000  0.07730000  0.57730000  1
  O  O608  1  0.92270000  0.19040000  0.07730000  1
  O  O609  1  0.92270000  0.69040000  0.57730000  1
  O  O610  1  0.42270000  0.69040000  0.07730000  1
  O  O611  1  0.42270000  0.19040000  0.57730000  1
  O  O612  1  0.92270000  0.07730000  0.80960000  1
  O  O613  1  0.92270000  0.57730000  0.30960000  1
  O  O614  1  0.42270000  0.57730000  0.80960000  1
  O  O615  1  0.42270000  0.07730000  0.30960000  1
  O  O616  1  0.80960000  0.07730000  0.92270000  1
  O  O617  1  0.80960000  0.57730000  0.42270000  1
  O  O618  1  0.30960000  0.57730000  0.92270000  1
  O  O619  1  0.30960000  0.07730000  0.42270000  1
  O  O620  1  0.92270000  0.19040000  0.92270000  1
  O  O621  1  0.92270000  0.69040000  0.42270000  1
  O  O622  1  0.42270000  0.69040000  0.92270000  1
  O  O623  1  0.42270000  0.19040000  0.42270000  1
  O  O624  1  0.07730000  0.92270000  0.19040000  1
  O  O625  1  0.07730000  0.42270000  0.69040000  1
  O  O626  1  0.57730000  0.42270000  0.19040000  1
  O  O627  1  0.57730000  0.92270000  0.69040000  1
  O  O628  1  0.07730000  0.80960000  0.07730000  1
  O  O629  1  0.07730000  0.30960000  0.57730000  1
  O  O630  1  0.57730000  0.30960000  0.07730000  1
  O  O631  1  0.57730000  0.80960000  0.57730000  1
  O  O632  1  0.19040000  0.92270000  0.07730000  1
  O  O633  1  0.19040000  0.42270000  0.57730000  1
  O  O634  1  0.69040000  0.42270000  0.07730000  1
  O  O635  1  0.69040000  0.92270000  0.57730000  1
  O  O636  1  0.07730000  0.92270000  0.80960000  1
  O  O637  1  0.07730000  0.42270000  0.30960000  1
  O  O638  1  0.57730000  0.42270000  0.80960000  1
  O  O639  1  0.57730000  0.92270000  0.30960000  1
  O  O640  1  0.07730000  0.80960000  0.92270000  1
  O  O641  1  0.07730000  0.30960000  0.42270000  1
  O  O642  1  0.57730000  0.30960000  0.92270000  1
  O  O643  1  0.57730000  0.80960000  0.42270000  1
  O  O644  1  0.19040000  0.92270000  0.92270000  1
  O  O645  1  0.19040000  0.42270000  0.42270000  1
  O  O646  1  0.69040000  0.42270000  0.92270000  1
  O  O647  1  0.69040000  0.92270000  0.42270000  1
  O  O648  1  0.92270000  0.92270000  0.80960000  1
  O  O649  1  0.92270000  0.42270000  0.30960000  1
  O  O650  1  0.42270000  0.42270000  0.80960000  1
  O  O651  1  0.42270000  0.92270000  0.30960000  1
  O  O652  1  0.80960000  0.92270000  0.92270000  1
  O  O653  1  0.80960000  0.42270000  0.42270000  1
  O  O654  1  0.30960000  0.42270000  0.92270000  1
  O  O655  1  0.30960000  0.92270000  0.42270000  1
  O  O656  1  0.92270000  0.80960000  0.92270000  1
  O  O657  1  0.92270000  0.30960000  0.42270000  1
  O  O658  1  0.42270000  0.30960000  0.92270000  1
  O  O659  1  0.42270000  0.80960000  0.42270000  1
  O  O660  1  0.92270000  0.92270000  0.19040000  1
  O  O661  1  0.92270000  0.42270000  0.69040000  1
  O  O662  1  0.42270000  0.42270000  0.19040000  1
  O  O663  1  0.42270000  0.92270000  0.69040000  1
  O  O664  1  0.80960000  0.92270000  0.07730000  1
  O  O665  1  0.80960000  0.42270000  0.57730000  1
  O  O666  1  0.30960000  0.42270000  0.07730000  1
  O  O667  1  0.30960000  0.92270000  0.57730000  1
  O  O668  1  0.92270000  0.80960000  0.07730000  1
  O  O669  1  0.92270000  0.30960000  0.57730000  1
  O  O670  1  0.42270000  0.30960000  0.07730000  1
  O  O671  1  0.42270000  0.80960000  0.57730000  1
  O  O672  1  0.11160000  0.20190000  0.00000000  1
  O  O673  1  0.11160000  0.70190000  0.50000000  1
  O  O674  1  0.61160000  0.70190000  0.00000000  1
  O  O675  1  0.61160000  0.20190000  0.50000000  1
  O  O676  1  0.00000000  0.11160000  0.20190000  1
  O  O677  1  0.00000000  0.61160000  0.70190000  1
  O  O678  1  0.50000000  0.61160000  0.20190000  1
  O  O679  1  0.50000000  0.11160000  0.70190000  1
  O  O680  1  0.20190000  0.00000000  0.11160000  1
  O  O681  1  0.20190000  0.50000000  0.61160000  1
  O  O682  1  0.70190000  0.50000000  0.11160000  1
  O  O683  1  0.70190000  0.00000000  0.61160000  1
  O  O684  1  0.00000000  0.11160000  0.79810000  1
  O  O685  1  0.00000000  0.61160000  0.29810000  1
  O  O686  1  0.50000000  0.61160000  0.79810000  1
  O  O687  1  0.50000000  0.11160000  0.29810000  1
  O  O688  1  0.20190000  0.00000000  0.88840000  1
  O  O689  1  0.20190000  0.50000000  0.38840000  1
  O  O690  1  0.70190000  0.50000000  0.88840000  1
  O  O691  1  0.70190000  0.00000000  0.38840000  1
  O  O692  1  0.88840000  0.20190000  0.00000000  1
  O  O693  1  0.88840000  0.70190000  0.50000000  1
  O  O694  1  0.38840000  0.70190000  0.00000000  1
  O  O695  1  0.38840000  0.20190000  0.50000000  1
  O  O696  1  0.79810000  0.00000000  0.11160000  1
  O  O697  1  0.79810000  0.50000000  0.61160000  1
  O  O698  1  0.29810000  0.50000000  0.11160000  1
  O  O699  1  0.29810000  0.00000000  0.61160000  1
  O  O700  1  0.79810000  0.00000000  0.88840000  1
  O  O701  1  0.79810000  0.50000000  0.38840000  1
  O  O702  1  0.29810000  0.50000000  0.88840000  1
  O  O703  1  0.29810000  0.00000000  0.38840000  1
  O  O704  1  0.20190000  0.11160000  0.00000000  1
  O  O705  1  0.20190000  0.61160000  0.50000000  1
  O  O706  1  0.70190000  0.61160000  0.00000000  1
  O  O707  1  0.70190000  0.11160000  0.50000000  1
  O  O708  1  0.11160000  0.00000000  0.20190000  1
  O  O709  1  0.11160000  0.50000000  0.70190000  1
  O  O710  1  0.61160000  0.50000000  0.20190000  1
  O  O711  1  0.61160000  0.00000000  0.70190000  1
  O  O712  1  0.00000000  0.20190000  0.11160000  1
  O  O713  1  0.00000000  0.70190000  0.61160000  1
  O  O714  1  0.50000000  0.70190000  0.11160000  1
  O  O715  1  0.50000000  0.20190000  0.61160000  1
  O  O716  1  0.11160000  0.00000000  0.79810000  1
  O  O717  1  0.11160000  0.50000000  0.29810000  1
  O  O718  1  0.61160000  0.50000000  0.79810000  1
  O  O719  1  0.61160000  0.00000000  0.29810000  1
  O  O720  1  0.00000000  0.20190000  0.88840000  1
  O  O721  1  0.00000000  0.70190000  0.38840000  1
  O  O722  1  0.50000000  0.70190000  0.88840000  1
  O  O723  1  0.50000000  0.20190000  0.38840000  1
  O  O724  1  0.20190000  0.88840000  0.00000000  1
  O  O725  1  0.20190000  0.38840000  0.50000000  1
  O  O726  1  0.70190000  0.38840000  0.00000000  1
  O  O727  1  0.70190000  0.88840000  0.50000000  1
  O  O728  1  0.00000000  0.79810000  0.11160000  1
  O  O729  1  0.00000000  0.29810000  0.61160000  1
  O  O730  1  0.50000000  0.29810000  0.11160000  1
  O  O731  1  0.50000000  0.79810000  0.61160000  1
  O  O732  1  0.00000000  0.79810000  0.88840000  1
  O  O733  1  0.00000000  0.29810000  0.38840000  1
  O  O734  1  0.50000000  0.29810000  0.88840000  1
  O  O735  1  0.50000000  0.79810000  0.38840000  1
  O  O736  1  0.88840000  0.79810000  0.00000000  1
  O  O737  1  0.88840000  0.29810000  0.50000000  1
  O  O738  1  0.38840000  0.29810000  0.00000000  1
  O  O739  1  0.38840000  0.79810000  0.50000000  1
  O  O740  1  0.00000000  0.88840000  0.79810000  1
  O  O741  1  0.00000000  0.38840000  0.29810000  1
  O  O742  1  0.50000000  0.38840000  0.79810000  1
  O  O743  1  0.50000000  0.88840000  0.29810000  1
  O  O744  1  0.00000000  0.88840000  0.20190000  1
  O  O745  1  0.00000000  0.38840000  0.70190000  1
  O  O746  1  0.50000000  0.38840000  0.20190000  1
  O  O747  1  0.50000000  0.88840000  0.70190000  1
  O  O748  1  0.11160000  0.79810000  0.00000000  1
  O  O749  1  0.11160000  0.29810000  0.50000000  1
  O  O750  1  0.61160000  0.29810000  0.00000000  1
  O  O751  1  0.61160000  0.79810000  0.50000000  1
  O  O752  1  0.79810000  0.88840000  0.00000000  1
  O  O753  1  0.79810000  0.38840000  0.50000000  1
  O  O754  1  0.29810000  0.38840000  0.00000000  1
  O  O755  1  0.29810000  0.88840000  0.50000000  1
  O  O756  1  0.88840000  0.00000000  0.79810000  1
  O  O757  1  0.88840000  0.50000000  0.29810000  1
  O  O758  1  0.38840000  0.50000000  0.79810000  1
  O  O759  1  0.38840000  0.00000000  0.29810000  1
  O  O760  1  0.88840000  0.00000000  0.20190000  1
  O  O761  1  0.88840000  0.50000000  0.70190000  1
  O  O762  1  0.38840000  0.50000000  0.20190000  1
  O  O763  1  0.38840000  0.00000000  0.70190000  1
  O  O764  1  0.79810000  0.11160000  0.00000000  1
  O  O765  1  0.79810000  0.61160000  0.50000000  1
  O  O766  1  0.29810000  0.61160000  0.00000000  1
  O  O767  1  0.29810000  0.11160000  0.50000000  1
