# generated using pymatgen
data_Cu
_symmetry_space_group_name_H-M   'P 1'
_cell_length_a   18.62730000
_cell_length_b   18.62730000
_cell_length_c   18.62730000
_cell_angle_alpha   60.00000000
_cell_angle_beta   60.00000000
_cell_angle_gamma   60.00000000
_symmetry_Int_Tables_number   1
_chemical_formula_structural   Cu
_chemical_formula_sum   Cu12
_cell_volume   4570.19498574
_cell_formula_units_Z   12
loop_
 _symmetry_equiv_pos_site_id
 _symmetry_equiv_pos_as_xyz
  1  'x, y, z'
loop_
 _atom_site_type_symbol
 _atom_site_label
 _atom_site_symmetry_multiplicity
 _atom_site_fract_x
 _atom_site_fract_y
 _atom_site_fract_z
 _atom_site_occupancy
  Cu  Cu0  1  0.57057000  0.00000000  0.42943000  1
  Cu  Cu1  1  0.00000000  0.57057000  0.00000000  1
  Cu  Cu2  1  0.42943000  0.00000000  0.57057000  1
  Cu  Cu3  1  0.00000000  0.42943000  0.00000000  1
  Cu  Cu4  1  0.57057000  0.42943000  0.00000000  1
  Cu  Cu5  1  0.00000000  0.00000000  0.42943000  1
  Cu  Cu6  1  0.42943000  0.57057000  0.00000000  1
  Cu  Cu7  1  0.00000000  0.00000000  0.57057000  1
  Cu  Cu8  1  0.57057000  0.00000000  0.00000000  1
  Cu  Cu9  1  0.00000000  0.42943000  0.57057000  1
  Cu  Cu10  1  0.42943000  0.00000000  0.00000000  1
  Cu  Cu11  1  0.00000000  0.57057000  0.42943000  1
