# generated using pymatgen
data_O2
_symmetry_space_group_name_H-M   'P 1'
_cell_length_a   44.74438000
_cell_length_b   44.74438000
_cell_length_c   44.74438000
_cell_angle_alpha   90.00000000
_cell_angle_beta   90.00000000
_cell_angle_gamma   90.00000000
_symmetry_Int_Tables_number   1
_chemical_formula_structural   O2
_chemical_formula_sum   O2880
_cell_volume   89580.91291128
_cell_formula_units_Z   1440
loop_
 _symmetry_equiv_pos_site_id
 _symmetry_equiv_pos_as_xyz
  1  'x, y, z'
loop_
 _atom_site_type_symbol
 _atom_site_label
 _atom_site_symmetry_multiplicity
 _atom_site_fract_x
 _atom_site_fract_y
 _atom_site_fract_z
 _atom_site_occupancy
  O  O0  1  0.83231000  0.61051000  0.54423000  1
  O  O1  1  0.54423000  0.83231000  0.61051000  1
  O  O2  1  0.61051000  0.54423000  0.83231000  1
  O  O3  1  0.83231000  0.54423000  0.61051000  1
  O  O4  1  0.61051000  0.83231000  0.54423000  1
  O  O5  1  0.54423000  0.61051000  0.83231000  1
  O  O6  1  0.83231000  0.38949000  0.45577000  1
  O  O7  1  0.54423000  0.16769000  0.38949000  1
  O  O8  1  0.61051000  0.45577000  0.16769000  1
  O  O9  1  0.83231000  0.45577000  0.38949000  1
  O  O10  1  0.61051000  0.16769000  0.45577000  1
  O  O11  1  0.54423000  0.38949000  0.16769000  1
  O  O12  1  0.16769000  0.61051000  0.45577000  1
  O  O13  1  0.45577000  0.83231000  0.38949000  1
  O  O14  1  0.38949000  0.54423000  0.16769000  1
  O  O15  1  0.16769000  0.54423000  0.38949000  1
  O  O16  1  0.38949000  0.83231000  0.45577000  1
  O  O17  1  0.45577000  0.61051000  0.16769000  1
  O  O18  1  0.16769000  0.38949000  0.54423000  1
  O  O19  1  0.45577000  0.16769000  0.61051000  1
  O  O20  1  0.38949000  0.45577000  0.83231000  1
  O  O21  1  0.16769000  0.45577000  0.61051000  1
  O  O22  1  0.38949000  0.16769000  0.54423000  1
  O  O23  1  0.45577000  0.38949000  0.83231000  1
  O  O24  1  0.16769000  0.38949000  0.45577000  1
  O  O25  1  0.45577000  0.16769000  0.38949000  1
  O  O26  1  0.38949000  0.45577000  0.16769000  1
  O  O27  1  0.16769000  0.45577000  0.38949000  1
  O  O28  1  0.38949000  0.16769000  0.45577000  1
  O  O29  1  0.45577000  0.38949000  0.16769000  1
  O  O30  1  0.16769000  0.61051000  0.54423000  1
  O  O31  1  0.45577000  0.83231000  0.61051000  1
  O  O32  1  0.38949000  0.54423000  0.83231000  1
  O  O33  1  0.16769000  0.54423000  0.61051000  1
  O  O34  1  0.38949000  0.83231000  0.54423000  1
  O  O35  1  0.45577000  0.61051000  0.83231000  1
  O  O36  1  0.83231000  0.38949000  0.54423000  1
  O  O37  1  0.54423000  0.16769000  0.61051000  1
  O  O38  1  0.61051000  0.45577000  0.83231000  1
  O  O39  1  0.83231000  0.45577000  0.61051000  1
  O  O40  1  0.61051000  0.16769000  0.54423000  1
  O  O41  1  0.54423000  0.38949000  0.83231000  1
  O  O42  1  0.83231000  0.61051000  0.45577000  1
  O  O43  1  0.54423000  0.83231000  0.38949000  1
  O  O44  1  0.61051000  0.54423000  0.16769000  1
  O  O45  1  0.83231000  0.54423000  0.38949000  1
  O  O46  1  0.61051000  0.83231000  0.45577000  1
  O  O47  1  0.54423000  0.61051000  0.16769000  1
  O  O48  1  0.33231000  0.11051000  0.04423000  1
  O  O49  1  0.04423000  0.33231000  0.11051000  1
  O  O50  1  0.11051000  0.04423000  0.33231000  1
  O  O51  1  0.33231000  0.04423000  0.11051000  1
  O  O52  1  0.11051000  0.33231000  0.04423000  1
  O  O53  1  0.04423000  0.11051000  0.33231000  1
  O  O54  1  0.33231000  0.88949000  0.95577000  1
  O  O55  1  0.04423000  0.66769000  0.88949000  1
  O  O56  1  0.11051000  0.95577000  0.66769000  1
  O  O57  1  0.33231000  0.95577000  0.88949000  1
  O  O58  1  0.11051000  0.66769000  0.95577000  1
  O  O59  1  0.04423000  0.88949000  0.66769000  1
  O  O60  1  0.66769000  0.11051000  0.95577000  1
  O  O61  1  0.95577000  0.33231000  0.88949000  1
  O  O62  1  0.88949000  0.04423000  0.66769000  1
  O  O63  1  0.66769000  0.04423000  0.88949000  1
  O  O64  1  0.88949000  0.33231000  0.95577000  1
  O  O65  1  0.95577000  0.11051000  0.66769000  1
  O  O66  1  0.66769000  0.88949000  0.04423000  1
  O  O67  1  0.95577000  0.66769000  0.11051000  1
  O  O68  1  0.88949000  0.95577000  0.33231000  1
  O  O69  1  0.66769000  0.95577000  0.11051000  1
  O  O70  1  0.88949000  0.66769000  0.04423000  1
  O  O71  1  0.95577000  0.88949000  0.33231000  1
  O  O72  1  0.66769000  0.88949000  0.95577000  1
  O  O73  1  0.95577000  0.66769000  0.88949000  1
  O  O74  1  0.88949000  0.95577000  0.66769000  1
  O  O75  1  0.66769000  0.95577000  0.88949000  1
  O  O76  1  0.88949000  0.66769000  0.95577000  1
  O  O77  1  0.95577000  0.88949000  0.66769000  1
  O  O78  1  0.66769000  0.11051000  0.04423000  1
  O  O79  1  0.95577000  0.33231000  0.11051000  1
  O  O80  1  0.88949000  0.04423000  0.33231000  1
  O  O81  1  0.66769000  0.04423000  0.11051000  1
  O  O82  1  0.88949000  0.33231000  0.04423000  1
  O  O83  1  0.95577000  0.11051000  0.33231000  1
  O  O84  1  0.33231000  0.88949000  0.04423000  1
  O  O85  1  0.04423000  0.66769000  0.11051000  1
  O  O86  1  0.11051000  0.95577000  0.33231000  1
  O  O87  1  0.33231000  0.95577000  0.11051000  1
  O  O88  1  0.11051000  0.66769000  0.04423000  1
  O  O89  1  0.04423000  0.88949000  0.33231000  1
  O  O90  1  0.33231000  0.11051000  0.95577000  1
  O  O91  1  0.04423000  0.33231000  0.88949000  1
  O  O92  1  0.11051000  0.04423000  0.66769000  1
  O  O93  1  0.33231000  0.04423000  0.88949000  1
  O  O94  1  0.11051000  0.33231000  0.95577000  1
  O  O95  1  0.04423000  0.11051000  0.66769000  1
  O  O96  1  0.77749000  0.63087000  0.53913000  1
  O  O97  1  0.53913000  0.77749000  0.63087000  1
  O  O98  1  0.63087000  0.53913000  0.77749000  1
  O  O99  1  0.77749000  0.53913000  0.63087000  1
  O  O100  1  0.63087000  0.77749000  0.53913000  1
  O  O101  1  0.53913000  0.63087000  0.77749000  1
  O  O102  1  0.77749000  0.36913000  0.46087000  1
  O  O103  1  0.53913000  0.22251000  0.36913000  1
  O  O104  1  0.63087000  0.46087000  0.22251000  1
  O  O105  1  0.77749000  0.46087000  0.36913000  1
  O  O106  1  0.63087000  0.22251000  0.46087000  1
  O  O107  1  0.53913000  0.36913000  0.22251000  1
  O  O108  1  0.22251000  0.63087000  0.46087000  1
  O  O109  1  0.46087000  0.77749000  0.36913000  1
  O  O110  1  0.36913000  0.53913000  0.22251000  1
  O  O111  1  0.22251000  0.53913000  0.36913000  1
  O  O112  1  0.36913000  0.77749000  0.46087000  1
  O  O113  1  0.46087000  0.63087000  0.22251000  1
  O  O114  1  0.22251000  0.36913000  0.53913000  1
  O  O115  1  0.46087000  0.22251000  0.63087000  1
  O  O116  1  0.36913000  0.46087000  0.77749000  1
  O  O117  1  0.22251000  0.46087000  0.63087000  1
  O  O118  1  0.36913000  0.22251000  0.53913000  1
  O  O119  1  0.46087000  0.36913000  0.77749000  1
  O  O120  1  0.22251000  0.36913000  0.46087000  1
  O  O121  1  0.46087000  0.22251000  0.36913000  1
  O  O122  1  0.36913000  0.46087000  0.22251000  1
  O  O123  1  0.22251000  0.46087000  0.36913000  1
  O  O124  1  0.36913000  0.22251000  0.46087000  1
  O  O125  1  0.46087000  0.36913000  0.22251000  1
  O  O126  1  0.22251000  0.63087000  0.53913000  1
  O  O127  1  0.46087000  0.77749000  0.63087000  1
  O  O128  1  0.36913000  0.53913000  0.77749000  1
  O  O129  1  0.22251000  0.53913000  0.63087000  1
  O  O130  1  0.36913000  0.77749000  0.53913000  1
  O  O131  1  0.46087000  0.63087000  0.77749000  1
  O  O132  1  0.77749000  0.36913000  0.53913000  1
  O  O133  1  0.53913000  0.22251000  0.63087000  1
  O  O134  1  0.63087000  0.46087000  0.77749000  1
  O  O135  1  0.77749000  0.46087000  0.63087000  1
  O  O136  1  0.63087000  0.22251000  0.53913000  1
  O  O137  1  0.53913000  0.36913000  0.77749000  1
  O  O138  1  0.77749000  0.63087000  0.46087000  1
  O  O139  1  0.53913000  0.77749000  0.36913000  1
  O  O140  1  0.63087000  0.53913000  0.22251000  1
  O  O141  1  0.77749000  0.53913000  0.36913000  1
  O  O142  1  0.63087000  0.77749000  0.46087000  1
  O  O143  1  0.53913000  0.63087000  0.22251000  1
  O  O144  1  0.27749000  0.13087000  0.03913000  1
  O  O145  1  0.03913000  0.27749000  0.13087000  1
  O  O146  1  0.13087000  0.03913000  0.27749000  1
  O  O147  1  0.27749000  0.03913000  0.13087000  1
  O  O148  1  0.13087000  0.27749000  0.03913000  1
  O  O149  1  0.03913000  0.13087000  0.27749000  1
  O  O150  1  0.27749000  0.86913000  0.96087000  1
  O  O151  1  0.03913000  0.72251000  0.86913000  1
  O  O152  1  0.13087000  0.96087000  0.72251000  1
  O  O153  1  0.27749000  0.96087000  0.86913000  1
  O  O154  1  0.13087000  0.72251000  0.96087000  1
  O  O155  1  0.03913000  0.86913000  0.72251000  1
  O  O156  1  0.72251000  0.13087000  0.96087000  1
  O  O157  1  0.96087000  0.27749000  0.86913000  1
  O  O158  1  0.86913000  0.03913000  0.72251000  1
  O  O159  1  0.72251000  0.03913000  0.86913000  1
  O  O160  1  0.86913000  0.27749000  0.96087000  1
  O  O161  1  0.96087000  0.13087000  0.72251000  1
  O  O162  1  0.72251000  0.86913000  0.03913000  1
  O  O163  1  0.96087000  0.72251000  0.13087000  1
  O  O164  1  0.86913000  0.96087000  0.27749000  1
  O  O165  1  0.72251000  0.96087000  0.13087000  1
  O  O166  1  0.86913000  0.72251000  0.03913000  1
  O  O167  1  0.96087000  0.86913000  0.27749000  1
  O  O168  1  0.72251000  0.86913000  0.96087000  1
  O  O169  1  0.96087000  0.72251000  0.86913000  1
  O  O170  1  0.86913000  0.96087000  0.72251000  1
  O  O171  1  0.72251000  0.96087000  0.86913000  1
  O  O172  1  0.86913000  0.72251000  0.96087000  1
  O  O173  1  0.96087000  0.86913000  0.72251000  1
  O  O174  1  0.72251000  0.13087000  0.03913000  1
  O  O175  1  0.96087000  0.27749000  0.13087000  1
  O  O176  1  0.86913000  0.03913000  0.27749000  1
  O  O177  1  0.72251000  0.03913000  0.13087000  1
  O  O178  1  0.86913000  0.27749000  0.03913000  1
  O  O179  1  0.96087000  0.13087000  0.27749000  1
  O  O180  1  0.27749000  0.86913000  0.03913000  1
  O  O181  1  0.03913000  0.72251000  0.13087000  1
  O  O182  1  0.13087000  0.96087000  0.27749000  1
  O  O183  1  0.27749000  0.96087000  0.13087000  1
  O  O184  1  0.13087000  0.72251000  0.03913000  1
  O  O185  1  0.03913000  0.86913000  0.27749000  1
  O  O186  1  0.27749000  0.13087000  0.96087000  1
  O  O187  1  0.03913000  0.27749000  0.86913000  1
  O  O188  1  0.13087000  0.03913000  0.72251000  1
  O  O189  1  0.27749000  0.03913000  0.86913000  1
  O  O190  1  0.13087000  0.27749000  0.96087000  1
  O  O191  1  0.03913000  0.13087000  0.72251000  1
  O  O192  1  0.72235000  0.61108000  0.54373000  1
  O  O193  1  0.54373000  0.72235000  0.61108000  1
  O  O194  1  0.61108000  0.54373000  0.72235000  1
  O  O195  1  0.72235000  0.54373000  0.61108000  1
  O  O196  1  0.61108000  0.72235000  0.54373000  1
  O  O197  1  0.54373000  0.61108000  0.72235000  1
  O  O198  1  0.72235000  0.38892000  0.45627000  1
  O  O199  1  0.54373000  0.27765000  0.38892000  1
  O  O200  1  0.61108000  0.45627000  0.27765000  1
  O  O201  1  0.72235000  0.45627000  0.38892000  1
  O  O202  1  0.61108000  0.27765000  0.45627000  1
  O  O203  1  0.54373000  0.38892000  0.27765000  1
  O  O204  1  0.27765000  0.61108000  0.45627000  1
  O  O205  1  0.45627000  0.72235000  0.38892000  1
  O  O206  1  0.38892000  0.54373000  0.27765000  1
  O  O207  1  0.27765000  0.54373000  0.38892000  1
  O  O208  1  0.38892000  0.72235000  0.45627000  1
  O  O209  1  0.45627000  0.61108000  0.27765000  1
  O  O210  1  0.27765000  0.38892000  0.54373000  1
  O  O211  1  0.45627000  0.27765000  0.61108000  1
  O  O212  1  0.38892000  0.45627000  0.72235000  1
  O  O213  1  0.27765000  0.45627000  0.61108000  1
  O  O214  1  0.38892000  0.27765000  0.54373000  1
  O  O215  1  0.45627000  0.38892000  0.72235000  1
  O  O216  1  0.27765000  0.38892000  0.45627000  1
  O  O217  1  0.45627000  0.27765000  0.38892000  1
  O  O218  1  0.38892000  0.45627000  0.27765000  1
  O  O219  1  0.27765000  0.45627000  0.38892000  1
  O  O220  1  0.38892000  0.27765000  0.45627000  1
  O  O221  1  0.45627000  0.38892000  0.27765000  1
  O  O222  1  0.27765000  0.61108000  0.54373000  1
  O  O223  1  0.45627000  0.72235000  0.61108000  1
  O  O224  1  0.38892000  0.54373000  0.72235000  1
  O  O225  1  0.27765000  0.54373000  0.61108000  1
  O  O226  1  0.38892000  0.72235000  0.54373000  1
  O  O227  1  0.45627000  0.61108000  0.72235000  1
  O  O228  1  0.72235000  0.38892000  0.54373000  1
  O  O229  1  0.54373000  0.27765000  0.61108000  1
  O  O230  1  0.61108000  0.45627000  0.72235000  1
  O  O231  1  0.72235000  0.45627000  0.61108000  1
  O  O232  1  0.61108000  0.27765000  0.54373000  1
  O  O233  1  0.54373000  0.38892000  0.72235000  1
  O  O234  1  0.72235000  0.61108000  0.45627000  1
  O  O235  1  0.54373000  0.72235000  0.38892000  1
  O  O236  1  0.61108000  0.54373000  0.27765000  1
  O  O237  1  0.72235000  0.54373000  0.38892000  1
  O  O238  1  0.61108000  0.72235000  0.45627000  1
  O  O239  1  0.54373000  0.61108000  0.27765000  1
  O  O240  1  0.22235000  0.11108000  0.04373000  1
  O  O241  1  0.04373000  0.22235000  0.11108000  1
  O  O242  1  0.11108000  0.04373000  0.22235000  1
  O  O243  1  0.22235000  0.04373000  0.11108000  1
  O  O244  1  0.11108000  0.22235000  0.04373000  1
  O  O245  1  0.04373000  0.11108000  0.22235000  1
  O  O246  1  0.22235000  0.88892000  0.95627000  1
  O  O247  1  0.04373000  0.77765000  0.88892000  1
  O  O248  1  0.11108000  0.95627000  0.77765000  1
  O  O249  1  0.22235000  0.95627000  0.88892000  1
  O  O250  1  0.11108000  0.77765000  0.95627000  1
  O  O251  1  0.04373000  0.88892000  0.77765000  1
  O  O252  1  0.77765000  0.11108000  0.95627000  1
  O  O253  1  0.95627000  0.22235000  0.88892000  1
  O  O254  1  0.88892000  0.04373000  0.77765000  1
  O  O255  1  0.77765000  0.04373000  0.88892000  1
  O  O256  1  0.88892000  0.22235000  0.95627000  1
  O  O257  1  0.95627000  0.11108000  0.77765000  1
  O  O258  1  0.77765000  0.88892000  0.04373000  1
  O  O259  1  0.95627000  0.77765000  0.11108000  1
  O  O260  1  0.88892000  0.95627000  0.22235000  1
  O  O261  1  0.77765000  0.95627000  0.11108000  1
  O  O262  1  0.88892000  0.77765000  0.04373000  1
  O  O263  1  0.95627000  0.88892000  0.22235000  1
  O  O264  1  0.77765000  0.88892000  0.95627000  1
  O  O265  1  0.95627000  0.77765000  0.88892000  1
  O  O266  1  0.88892000  0.95627000  0.77765000  1
  O  O267  1  0.77765000  0.95627000  0.88892000  1
  O  O268  1  0.88892000  0.77765000  0.95627000  1
  O  O269  1  0.95627000  0.88892000  0.77765000  1
  O  O270  1  0.77765000  0.11108000  0.04373000  1
  O  O271  1  0.95627000  0.22235000  0.11108000  1
  O  O272  1  0.88892000  0.04373000  0.22235000  1
  O  O273  1  0.77765000  0.04373000  0.11108000  1
  O  O274  1  0.88892000  0.22235000  0.04373000  1
  O  O275  1  0.95627000  0.11108000  0.22235000  1
  O  O276  1  0.22235000  0.88892000  0.04373000  1
  O  O277  1  0.04373000  0.77765000  0.11108000  1
  O  O278  1  0.11108000  0.95627000  0.22235000  1
  O  O279  1  0.22235000  0.95627000  0.11108000  1
  O  O280  1  0.11108000  0.77765000  0.04373000  1
  O  O281  1  0.04373000  0.88892000  0.22235000  1
  O  O282  1  0.22235000  0.11108000  0.95627000  1
  O  O283  1  0.04373000  0.22235000  0.88892000  1
  O  O284  1  0.11108000  0.04373000  0.77765000  1
  O  O285  1  0.22235000  0.04373000  0.88892000  1
  O  O286  1  0.11108000  0.22235000  0.95627000  1
  O  O287  1  0.04373000  0.11108000  0.77765000  1
  O  O288  1  0.66674000  0.59229000  0.53953000  1
  O  O289  1  0.53953000  0.66674000  0.59229000  1
  O  O290  1  0.59229000  0.53953000  0.66674000  1
  O  O291  1  0.66674000  0.53953000  0.59229000  1
  O  O292  1  0.59229000  0.66674000  0.53953000  1
  O  O293  1  0.53953000  0.59229000  0.66674000  1
  O  O294  1  0.66674000  0.40771000  0.46047000  1
  O  O295  1  0.53953000  0.33326000  0.40771000  1
  O  O296  1  0.59229000  0.46047000  0.33326000  1
  O  O297  1  0.66674000  0.46047000  0.40771000  1
  O  O298  1  0.59229000  0.33326000  0.46047000  1
  O  O299  1  0.53953000  0.40771000  0.33326000  1
  O  O300  1  0.33326000  0.59229000  0.46047000  1
  O  O301  1  0.46047000  0.66674000  0.40771000  1
  O  O302  1  0.40771000  0.53953000  0.33326000  1
  O  O303  1  0.33326000  0.53953000  0.40771000  1
  O  O304  1  0.40771000  0.66674000  0.46047000  1
  O  O305  1  0.46047000  0.59229000  0.33326000  1
  O  O306  1  0.33326000  0.40771000  0.53953000  1
  O  O307  1  0.46047000  0.33326000  0.59229000  1
  O  O308  1  0.40771000  0.46047000  0.66674000  1
  O  O309  1  0.33326000  0.46047000  0.59229000  1
  O  O310  1  0.40771000  0.33326000  0.53953000  1
  O  O311  1  0.46047000  0.40771000  0.66674000  1
  O  O312  1  0.33326000  0.40771000  0.46047000  1
  O  O313  1  0.46047000  0.33326000  0.40771000  1
  O  O314  1  0.40771000  0.46047000  0.33326000  1
  O  O315  1  0.33326000  0.46047000  0.40771000  1
  O  O316  1  0.40771000  0.33326000  0.46047000  1
  O  O317  1  0.46047000  0.40771000  0.33326000  1
  O  O318  1  0.33326000  0.59229000  0.53953000  1
  O  O319  1  0.46047000  0.66674000  0.59229000  1
  O  O320  1  0.40771000  0.53953000  0.66674000  1
  O  O321  1  0.33326000  0.53953000  0.59229000  1
  O  O322  1  0.40771000  0.66674000  0.53953000  1
  O  O323  1  0.46047000  0.59229000  0.66674000  1
  O  O324  1  0.66674000  0.40771000  0.53953000  1
  O  O325  1  0.53953000  0.33326000  0.59229000  1
  O  O326  1  0.59229000  0.46047000  0.66674000  1
  O  O327  1  0.66674000  0.46047000  0.59229000  1
  O  O328  1  0.59229000  0.33326000  0.53953000  1
  O  O329  1  0.53953000  0.40771000  0.66674000  1
  O  O330  1  0.66674000  0.59229000  0.46047000  1
  O  O331  1  0.53953000  0.66674000  0.40771000  1
  O  O332  1  0.59229000  0.53953000  0.33326000  1
  O  O333  1  0.66674000  0.53953000  0.40771000  1
  O  O334  1  0.59229000  0.66674000  0.46047000  1
  O  O335  1  0.53953000  0.59229000  0.33326000  1
  O  O336  1  0.16674000  0.09229000  0.03953000  1
  O  O337  1  0.03953000  0.16674000  0.09229000  1
  O  O338  1  0.09229000  0.03953000  0.16674000  1
  O  O339  1  0.16674000  0.03953000  0.09229000  1
  O  O340  1  0.09229000  0.16674000  0.03953000  1
  O  O341  1  0.03953000  0.09229000  0.16674000  1
  O  O342  1  0.16674000  0.90771000  0.96047000  1
  O  O343  1  0.03953000  0.83326000  0.90771000  1
  O  O344  1  0.09229000  0.96047000  0.83326000  1
  O  O345  1  0.16674000  0.96047000  0.90771000  1
  O  O346  1  0.09229000  0.83326000  0.96047000  1
  O  O347  1  0.03953000  0.90771000  0.83326000  1
  O  O348  1  0.83326000  0.09229000  0.96047000  1
  O  O349  1  0.96047000  0.16674000  0.90771000  1
  O  O350  1  0.90771000  0.03953000  0.83326000  1
  O  O351  1  0.83326000  0.03953000  0.90771000  1
  O  O352  1  0.90771000  0.16674000  0.96047000  1
  O  O353  1  0.96047000  0.09229000  0.83326000  1
  O  O354  1  0.83326000  0.90771000  0.03953000  1
  O  O355  1  0.96047000  0.83326000  0.09229000  1
  O  O356  1  0.90771000  0.96047000  0.16674000  1
  O  O357  1  0.83326000  0.96047000  0.09229000  1
  O  O358  1  0.90771000  0.83326000  0.03953000  1
  O  O359  1  0.96047000  0.90771000  0.16674000  1
  O  O360  1  0.83326000  0.90771000  0.96047000  1
  O  O361  1  0.96047000  0.83326000  0.90771000  1
  O  O362  1  0.90771000  0.96047000  0.83326000  1
  O  O363  1  0.83326000  0.96047000  0.90771000  1
  O  O364  1  0.90771000  0.83326000  0.96047000  1
  O  O365  1  0.96047000  0.90771000  0.83326000  1
  O  O366  1  0.83326000  0.09229000  0.03953000  1
  O  O367  1  0.96047000  0.16674000  0.09229000  1
  O  O368  1  0.90771000  0.03953000  0.16674000  1
  O  O369  1  0.83326000  0.03953000  0.09229000  1
  O  O370  1  0.90771000  0.16674000  0.03953000  1
  O  O371  1  0.96047000  0.09229000  0.16674000  1
  O  O372  1  0.16674000  0.90771000  0.03953000  1
  O  O373  1  0.03953000  0.83326000  0.09229000  1
  O  O374  1  0.09229000  0.96047000  0.16674000  1
  O  O375  1  0.16674000  0.96047000  0.09229000  1
  O  O376  1  0.09229000  0.83326000  0.03953000  1
  O  O377  1  0.03953000  0.90771000  0.16674000  1
  O  O378  1  0.16674000  0.09229000  0.96047000  1
  O  O379  1  0.03953000  0.16674000  0.90771000  1
  O  O380  1  0.09229000  0.03953000  0.83326000  1
  O  O381  1  0.16674000  0.03953000  0.90771000  1
  O  O382  1  0.09229000  0.16674000  0.96047000  1
  O  O383  1  0.03953000  0.09229000  0.83326000  1
  O  O384  1  0.11160000  0.59332000  0.53948000  1
  O  O385  1  0.53948000  0.11160000  0.59332000  1
  O  O386  1  0.59332000  0.53948000  0.11160000  1
  O  O387  1  0.11160000  0.53948000  0.59332000  1
  O  O388  1  0.59332000  0.11160000  0.53948000  1
  O  O389  1  0.53948000  0.59332000  0.11160000  1
  O  O390  1  0.11160000  0.40668000  0.46052000  1
  O  O391  1  0.53948000  0.88840000  0.40668000  1
  O  O392  1  0.59332000  0.46052000  0.88840000  1
  O  O393  1  0.11160000  0.46052000  0.40668000  1
  O  O394  1  0.59332000  0.88840000  0.46052000  1
  O  O395  1  0.53948000  0.40668000  0.88840000  1
  O  O396  1  0.88840000  0.59332000  0.46052000  1
  O  O397  1  0.46052000  0.11160000  0.40668000  1
  O  O398  1  0.40668000  0.53948000  0.88840000  1
  O  O399  1  0.88840000  0.53948000  0.40668000  1
  O  O400  1  0.40668000  0.11160000  0.46052000  1
  O  O401  1  0.46052000  0.59332000  0.88840000  1
  O  O402  1  0.88840000  0.40668000  0.53948000  1
  O  O403  1  0.46052000  0.88840000  0.59332000  1
  O  O404  1  0.40668000  0.46052000  0.11160000  1
  O  O405  1  0.88840000  0.46052000  0.59332000  1
  O  O406  1  0.40668000  0.88840000  0.53948000  1
  O  O407  1  0.46052000  0.40668000  0.11160000  1
  O  O408  1  0.88840000  0.40668000  0.46052000  1
  O  O409  1  0.46052000  0.88840000  0.40668000  1
  O  O410  1  0.40668000  0.46052000  0.88840000  1
  O  O411  1  0.88840000  0.46052000  0.40668000  1
  O  O412  1  0.40668000  0.88840000  0.46052000  1
  O  O413  1  0.46052000  0.40668000  0.88840000  1
  O  O414  1  0.88840000  0.59332000  0.53948000  1
  O  O415  1  0.46052000  0.11160000  0.59332000  1
  O  O416  1  0.40668000  0.53948000  0.11160000  1
  O  O417  1  0.88840000  0.53948000  0.59332000  1
  O  O418  1  0.40668000  0.11160000  0.53948000  1
  O  O419  1  0.46052000  0.59332000  0.11160000  1
  O  O420  1  0.11160000  0.40668000  0.53948000  1
  O  O421  1  0.53948000  0.88840000  0.59332000  1
  O  O422  1  0.59332000  0.46052000  0.11160000  1
  O  O423  1  0.11160000  0.46052000  0.59332000  1
  O  O424  1  0.59332000  0.88840000  0.53948000  1
  O  O425  1  0.53948000  0.40668000  0.11160000  1
  O  O426  1  0.11160000  0.59332000  0.46052000  1
  O  O427  1  0.53948000  0.11160000  0.40668000  1
  O  O428  1  0.59332000  0.53948000  0.88840000  1
  O  O429  1  0.11160000  0.53948000  0.40668000  1
  O  O430  1  0.59332000  0.11160000  0.46052000  1
  O  O431  1  0.53948000  0.59332000  0.88840000  1
  O  O432  1  0.61160000  0.09332000  0.03948000  1
  O  O433  1  0.03948000  0.61160000  0.09332000  1
  O  O434  1  0.09332000  0.03948000  0.61160000  1
  O  O435  1  0.61160000  0.03948000  0.09332000  1
  O  O436  1  0.09332000  0.61160000  0.03948000  1
  O  O437  1  0.03948000  0.09332000  0.61160000  1
  O  O438  1  0.61160000  0.90668000  0.96052000  1
  O  O439  1  0.03948000  0.38840000  0.90668000  1
  O  O440  1  0.09332000  0.96052000  0.38840000  1
  O  O441  1  0.61160000  0.96052000  0.90668000  1
  O  O442  1  0.09332000  0.38840000  0.96052000  1
  O  O443  1  0.03948000  0.90668000  0.38840000  1
  O  O444  1  0.38840000  0.09332000  0.96052000  1
  O  O445  1  0.96052000  0.61160000  0.90668000  1
  O  O446  1  0.90668000  0.03948000  0.38840000  1
  O  O447  1  0.38840000  0.03948000  0.90668000  1
  O  O448  1  0.90668000  0.61160000  0.96052000  1
  O  O449  1  0.96052000  0.09332000  0.38840000  1
  O  O450  1  0.38840000  0.90668000  0.03948000  1
  O  O451  1  0.96052000  0.38840000  0.09332000  1
  O  O452  1  0.90668000  0.96052000  0.61160000  1
  O  O453  1  0.38840000  0.96052000  0.09332000  1
  O  O454  1  0.90668000  0.38840000  0.03948000  1
  O  O455  1  0.96052000  0.90668000  0.61160000  1
  O  O456  1  0.38840000  0.90668000  0.96052000  1
  O  O457  1  0.96052000  0.38840000  0.90668000  1
  O  O458  1  0.90668000  0.96052000  0.38840000  1
  O  O459  1  0.38840000  0.96052000  0.90668000  1
  O  O460  1  0.90668000  0.38840000  0.96052000  1
  O  O461  1  0.96052000  0.90668000  0.38840000  1
  O  O462  1  0.38840000  0.09332000  0.03948000  1
  O  O463  1  0.96052000  0.61160000  0.09332000  1
  O  O464  1  0.90668000  0.03948000  0.61160000  1
  O  O465  1  0.38840000  0.03948000  0.09332000  1
  O  O466  1  0.90668000  0.61160000  0.03948000  1
  O  O467  1  0.96052000  0.09332000  0.61160000  1
  O  O468  1  0.61160000  0.90668000  0.03948000  1
  O  O469  1  0.03948000  0.38840000  0.09332000  1
  O  O470  1  0.09332000  0.96052000  0.61160000  1
  O  O471  1  0.61160000  0.96052000  0.09332000  1
  O  O472  1  0.09332000  0.38840000  0.03948000  1
  O  O473  1  0.03948000  0.90668000  0.61160000  1
  O  O474  1  0.61160000  0.09332000  0.96052000  1
  O  O475  1  0.03948000  0.61160000  0.90668000  1
  O  O476  1  0.09332000  0.03948000  0.38840000  1
  O  O477  1  0.61160000  0.03948000  0.90668000  1
  O  O478  1  0.09332000  0.61160000  0.96052000  1
  O  O479  1  0.03948000  0.09332000  0.38840000  1
  O  O480  1  0.55557000  0.11048000  0.04460000  1
  O  O481  1  0.04460000  0.55557000  0.11048000  1
  O  O482  1  0.11048000  0.04460000  0.55557000  1
  O  O483  1  0.55557000  0.04460000  0.11048000  1
  O  O484  1  0.11048000  0.55557000  0.04460000  1
  O  O485  1  0.04460000  0.11048000  0.55557000  1
  O  O486  1  0.55557000  0.88952000  0.95540000  1
  O  O487  1  0.04460000  0.44443000  0.88952000  1
  O  O488  1  0.11048000  0.95540000  0.44443000  1
  O  O489  1  0.55557000  0.95540000  0.88952000  1
  O  O490  1  0.11048000  0.44443000  0.95540000  1
  O  O491  1  0.04460000  0.88952000  0.44443000  1
  O  O492  1  0.44443000  0.11048000  0.95540000  1
  O  O493  1  0.95540000  0.55557000  0.88952000  1
  O  O494  1  0.88952000  0.04460000  0.44443000  1
  O  O495  1  0.44443000  0.04460000  0.88952000  1
  O  O496  1  0.88952000  0.55557000  0.95540000  1
  O  O497  1  0.95540000  0.11048000  0.44443000  1
  O  O498  1  0.44443000  0.88952000  0.04460000  1
  O  O499  1  0.95540000  0.44443000  0.11048000  1
  O  O500  1  0.88952000  0.95540000  0.55557000  1
  O  O501  1  0.44443000  0.95540000  0.11048000  1
  O  O502  1  0.88952000  0.44443000  0.04460000  1
  O  O503  1  0.95540000  0.88952000  0.55557000  1
  O  O504  1  0.44443000  0.88952000  0.95540000  1
  O  O505  1  0.95540000  0.44443000  0.88952000  1
  O  O506  1  0.88952000  0.95540000  0.44443000  1
  O  O507  1  0.44443000  0.95540000  0.88952000  1
  O  O508  1  0.88952000  0.44443000  0.95540000  1
  O  O509  1  0.95540000  0.88952000  0.44443000  1
  O  O510  1  0.44443000  0.11048000  0.04460000  1
  O  O511  1  0.95540000  0.55557000  0.11048000  1
  O  O512  1  0.88952000  0.04460000  0.55557000  1
  O  O513  1  0.44443000  0.04460000  0.11048000  1
  O  O514  1  0.88952000  0.55557000  0.04460000  1
  O  O515  1  0.95540000  0.11048000  0.55557000  1
  O  O516  1  0.55557000  0.88952000  0.04460000  1
  O  O517  1  0.04460000  0.44443000  0.11048000  1
  O  O518  1  0.11048000  0.95540000  0.55557000  1
  O  O519  1  0.55557000  0.95540000  0.11048000  1
  O  O520  1  0.11048000  0.44443000  0.04460000  1
  O  O521  1  0.04460000  0.88952000  0.55557000  1
  O  O522  1  0.55557000  0.11048000  0.95540000  1
  O  O523  1  0.04460000  0.55557000  0.88952000  1
  O  O524  1  0.11048000  0.04460000  0.44443000  1
  O  O525  1  0.55557000  0.04460000  0.88952000  1
  O  O526  1  0.11048000  0.55557000  0.95540000  1
  O  O527  1  0.04460000  0.11048000  0.44443000  1
  O  O528  1  0.05557000  0.61048000  0.54460000  1
  O  O529  1  0.54460000  0.05557000  0.61048000  1
  O  O530  1  0.61048000  0.54460000  0.05557000  1
  O  O531  1  0.05557000  0.54460000  0.61048000  1
  O  O532  1  0.61048000  0.05557000  0.54460000  1
  O  O533  1  0.54460000  0.61048000  0.05557000  1
  O  O534  1  0.05557000  0.38952000  0.45540000  1
  O  O535  1  0.54460000  0.94443000  0.38952000  1
  O  O536  1  0.61048000  0.45540000  0.94443000  1
  O  O537  1  0.05557000  0.45540000  0.38952000  1
  O  O538  1  0.61048000  0.94443000  0.45540000  1
  O  O539  1  0.54460000  0.38952000  0.94443000  1
  O  O540  1  0.94443000  0.61048000  0.45540000  1
  O  O541  1  0.45540000  0.05557000  0.38952000  1
  O  O542  1  0.38952000  0.54460000  0.94443000  1
  O  O543  1  0.94443000  0.54460000  0.38952000  1
  O  O544  1  0.38952000  0.05557000  0.45540000  1
  O  O545  1  0.45540000  0.61048000  0.94443000  1
  O  O546  1  0.94443000  0.38952000  0.54460000  1
  O  O547  1  0.45540000  0.94443000  0.61048000  1
  O  O548  1  0.38952000  0.45540000  0.05557000  1
  O  O549  1  0.94443000  0.45540000  0.61048000  1
  O  O550  1  0.38952000  0.94443000  0.54460000  1
  O  O551  1  0.45540000  0.38952000  0.05557000  1
  O  O552  1  0.94443000  0.38952000  0.45540000  1
  O  O553  1  0.45540000  0.94443000  0.38952000  1
  O  O554  1  0.38952000  0.45540000  0.94443000  1
  O  O555  1  0.94443000  0.45540000  0.38952000  1
  O  O556  1  0.38952000  0.94443000  0.45540000  1
  O  O557  1  0.45540000  0.38952000  0.94443000  1
  O  O558  1  0.94443000  0.61048000  0.54460000  1
  O  O559  1  0.45540000  0.05557000  0.61048000  1
  O  O560  1  0.38952000  0.54460000  0.05557000  1
  O  O561  1  0.94443000  0.54460000  0.61048000  1
  O  O562  1  0.38952000  0.05557000  0.54460000  1
  O  O563  1  0.45540000  0.61048000  0.05557000  1
  O  O564  1  0.05557000  0.38952000  0.54460000  1
  O  O565  1  0.54460000  0.94443000  0.61048000  1
  O  O566  1  0.61048000  0.45540000  0.05557000  1
  O  O567  1  0.05557000  0.45540000  0.61048000  1
  O  O568  1  0.61048000  0.94443000  0.54460000  1
  O  O569  1  0.54460000  0.38952000  0.05557000  1
  O  O570  1  0.05557000  0.61048000  0.45540000  1
  O  O571  1  0.54460000  0.05557000  0.38952000  1
  O  O572  1  0.61048000  0.54460000  0.94443000  1
  O  O573  1  0.05557000  0.54460000  0.38952000  1
  O  O574  1  0.61048000  0.05557000  0.45540000  1
  O  O575  1  0.54460000  0.61048000  0.94443000  1
  O  O576  1  0.68586000  0.61074000  0.81805000  1
  O  O577  1  0.81805000  0.68586000  0.61074000  1
  O  O578  1  0.61074000  0.81805000  0.68586000  1
  O  O579  1  0.68586000  0.81805000  0.61074000  1
  O  O580  1  0.61074000  0.68586000  0.81805000  1
  O  O581  1  0.81805000  0.61074000  0.68586000  1
  O  O582  1  0.68586000  0.38926000  0.18195000  1
  O  O583  1  0.81805000  0.31414000  0.38926000  1
  O  O584  1  0.61074000  0.18195000  0.31414000  1
  O  O585  1  0.68586000  0.18195000  0.38926000  1
  O  O586  1  0.61074000  0.31414000  0.18195000  1
  O  O587  1  0.81805000  0.38926000  0.31414000  1
  O  O588  1  0.31414000  0.61074000  0.18195000  1
  O  O589  1  0.18195000  0.68586000  0.38926000  1
  O  O590  1  0.38926000  0.81805000  0.31414000  1
  O  O591  1  0.31414000  0.81805000  0.38926000  1
  O  O592  1  0.38926000  0.68586000  0.18195000  1
  O  O593  1  0.18195000  0.61074000  0.31414000  1
  O  O594  1  0.31414000  0.38926000  0.81805000  1
  O  O595  1  0.18195000  0.31414000  0.61074000  1
  O  O596  1  0.38926000  0.18195000  0.68586000  1
  O  O597  1  0.31414000  0.18195000  0.61074000  1
  O  O598  1  0.38926000  0.31414000  0.81805000  1
  O  O599  1  0.18195000  0.38926000  0.68586000  1
  O  O600  1  0.31414000  0.38926000  0.18195000  1
  O  O601  1  0.18195000  0.31414000  0.38926000  1
  O  O602  1  0.38926000  0.18195000  0.31414000  1
  O  O603  1  0.31414000  0.18195000  0.38926000  1
  O  O604  1  0.38926000  0.31414000  0.18195000  1
  O  O605  1  0.18195000  0.38926000  0.31414000  1
  O  O606  1  0.31414000  0.61074000  0.81805000  1
  O  O607  1  0.18195000  0.68586000  0.61074000  1
  O  O608  1  0.38926000  0.81805000  0.68586000  1
  O  O609  1  0.31414000  0.81805000  0.61074000  1
  O  O610  1  0.38926000  0.68586000  0.81805000  1
  O  O611  1  0.18195000  0.61074000  0.68586000  1
  O  O612  1  0.68586000  0.38926000  0.81805000  1
  O  O613  1  0.81805000  0.31414000  0.61074000  1
  O  O614  1  0.61074000  0.18195000  0.68586000  1
  O  O615  1  0.68586000  0.18195000  0.61074000  1
  O  O616  1  0.61074000  0.31414000  0.81805000  1
  O  O617  1  0.81805000  0.38926000  0.68586000  1
  O  O618  1  0.68586000  0.61074000  0.18195000  1
  O  O619  1  0.81805000  0.68586000  0.38926000  1
  O  O620  1  0.61074000  0.81805000  0.31414000  1
  O  O621  1  0.68586000  0.81805000  0.38926000  1
  O  O622  1  0.61074000  0.68586000  0.18195000  1
  O  O623  1  0.81805000  0.61074000  0.31414000  1
  O  O624  1  0.18586000  0.11074000  0.31805000  1
  O  O625  1  0.31805000  0.18586000  0.11074000  1
  O  O626  1  0.11074000  0.31805000  0.18586000  1
  O  O627  1  0.18586000  0.31805000  0.11074000  1
  O  O628  1  0.11074000  0.18586000  0.31805000  1
  O  O629  1  0.31805000  0.11074000  0.18586000  1
  O  O630  1  0.18586000  0.88926000  0.68195000  1
  O  O631  1  0.31805000  0.81414000  0.88926000  1
  O  O632  1  0.11074000  0.68195000  0.81414000  1
  O  O633  1  0.18586000  0.68195000  0.88926000  1
  O  O634  1  0.11074000  0.81414000  0.68195000  1
  O  O635  1  0.31805000  0.88926000  0.81414000  1
  O  O636  1  0.81414000  0.11074000  0.68195000  1
  O  O637  1  0.68195000  0.18586000  0.88926000  1
  O  O638  1  0.88926000  0.31805000  0.81414000  1
  O  O639  1  0.81414000  0.31805000  0.88926000  1
  O  O640  1  0.88926000  0.18586000  0.68195000  1
  O  O641  1  0.68195000  0.11074000  0.81414000  1
  O  O642  1  0.81414000  0.88926000  0.31805000  1
  O  O643  1  0.68195000  0.81414000  0.11074000  1
  O  O644  1  0.88926000  0.68195000  0.18586000  1
  O  O645  1  0.81414000  0.68195000  0.11074000  1
  O  O646  1  0.88926000  0.81414000  0.31805000  1
  O  O647  1  0.68195000  0.88926000  0.18586000  1
  O  O648  1  0.81414000  0.88926000  0.68195000  1
  O  O649  1  0.68195000  0.81414000  0.88926000  1
  O  O650  1  0.88926000  0.68195000  0.81414000  1
  O  O651  1  0.81414000  0.68195000  0.88926000  1
  O  O652  1  0.88926000  0.81414000  0.68195000  1
  O  O653  1  0.68195000  0.88926000  0.81414000  1
  O  O654  1  0.81414000  0.11074000  0.31805000  1
  O  O655  1  0.68195000  0.18586000  0.11074000  1
  O  O656  1  0.88926000  0.31805000  0.18586000  1
  O  O657  1  0.81414000  0.31805000  0.11074000  1
  O  O658  1  0.88926000  0.18586000  0.31805000  1
  O  O659  1  0.68195000  0.11074000  0.18586000  1
  O  O660  1  0.18586000  0.88926000  0.31805000  1
  O  O661  1  0.31805000  0.81414000  0.11074000  1
  O  O662  1  0.11074000  0.68195000  0.18586000  1
  O  O663  1  0.18586000  0.68195000  0.11074000  1
  O  O664  1  0.11074000  0.81414000  0.31805000  1
  O  O665  1  0.31805000  0.88926000  0.18586000  1
  O  O666  1  0.18586000  0.11074000  0.68195000  1
  O  O667  1  0.31805000  0.18586000  0.88926000  1
  O  O668  1  0.11074000  0.31805000  0.81414000  1
  O  O669  1  0.18586000  0.31805000  0.88926000  1
  O  O670  1  0.11074000  0.18586000  0.68195000  1
  O  O671  1  0.31805000  0.11074000  0.81414000  1
  O  O672  1  0.70280000  0.77802000  0.65052000  1
  O  O673  1  0.65052000  0.70280000  0.77802000  1
  O  O674  1  0.77802000  0.65052000  0.70280000  1
  O  O675  1  0.70280000  0.65052000  0.77802000  1
  O  O676  1  0.77802000  0.70280000  0.65052000  1
  O  O677  1  0.65052000  0.77802000  0.70280000  1
  O  O678  1  0.70280000  0.22198000  0.34948000  1
  O  O679  1  0.65052000  0.29720000  0.22198000  1
  O  O680  1  0.77802000  0.34948000  0.29720000  1
  O  O681  1  0.70280000  0.34948000  0.22198000  1
  O  O682  1  0.77802000  0.29720000  0.34948000  1
  O  O683  1  0.65052000  0.22198000  0.29720000  1
  O  O684  1  0.29720000  0.77802000  0.34948000  1
  O  O685  1  0.34948000  0.70280000  0.22198000  1
  O  O686  1  0.22198000  0.65052000  0.29720000  1
  O  O687  1  0.29720000  0.65052000  0.22198000  1
  O  O688  1  0.22198000  0.70280000  0.34948000  1
  O  O689  1  0.34948000  0.77802000  0.29720000  1
  O  O690  1  0.29720000  0.22198000  0.65052000  1
  O  O691  1  0.34948000  0.29720000  0.77802000  1
  O  O692  1  0.22198000  0.34948000  0.70280000  1
  O  O693  1  0.29720000  0.34948000  0.77802000  1
  O  O694  1  0.22198000  0.29720000  0.65052000  1
  O  O695  1  0.34948000  0.22198000  0.70280000  1
  O  O696  1  0.29720000  0.22198000  0.34948000  1
  O  O697  1  0.34948000  0.29720000  0.22198000  1
  O  O698  1  0.22198000  0.34948000  0.29720000  1
  O  O699  1  0.29720000  0.34948000  0.22198000  1
  O  O700  1  0.22198000  0.29720000  0.34948000  1
  O  O701  1  0.34948000  0.22198000  0.29720000  1
  O  O702  1  0.29720000  0.77802000  0.65052000  1
  O  O703  1  0.34948000  0.70280000  0.77802000  1
  O  O704  1  0.22198000  0.65052000  0.70280000  1
  O  O705  1  0.29720000  0.65052000  0.77802000  1
  O  O706  1  0.22198000  0.70280000  0.65052000  1
  O  O707  1  0.34948000  0.77802000  0.70280000  1
  O  O708  1  0.70280000  0.22198000  0.65052000  1
  O  O709  1  0.65052000  0.29720000  0.77802000  1
  O  O710  1  0.77802000  0.34948000  0.70280000  1
  O  O711  1  0.70280000  0.34948000  0.77802000  1
  O  O712  1  0.77802000  0.29720000  0.65052000  1
  O  O713  1  0.65052000  0.22198000  0.70280000  1
  O  O714  1  0.70280000  0.77802000  0.34948000  1
  O  O715  1  0.65052000  0.70280000  0.22198000  1
  O  O716  1  0.77802000  0.65052000  0.29720000  1
  O  O717  1  0.70280000  0.65052000  0.22198000  1
  O  O718  1  0.77802000  0.70280000  0.34948000  1
  O  O719  1  0.65052000  0.77802000  0.29720000  1
  O  O720  1  0.20280000  0.27802000  0.15052000  1
  O  O721  1  0.15052000  0.20280000  0.27802000  1
  O  O722  1  0.27802000  0.15052000  0.20280000  1
  O  O723  1  0.20280000  0.15052000  0.27802000  1
  O  O724  1  0.27802000  0.20280000  0.15052000  1
  O  O725  1  0.15052000  0.27802000  0.20280000  1
  O  O726  1  0.20280000  0.72198000  0.84948000  1
  O  O727  1  0.15052000  0.79720000  0.72198000  1
  O  O728  1  0.27802000  0.84948000  0.79720000  1
  O  O729  1  0.20280000  0.84948000  0.72198000  1
  O  O730  1  0.27802000  0.79720000  0.84948000  1
  O  O731  1  0.15052000  0.72198000  0.79720000  1
  O  O732  1  0.79720000  0.27802000  0.84948000  1
  O  O733  1  0.84948000  0.20280000  0.72198000  1
  O  O734  1  0.72198000  0.15052000  0.79720000  1
  O  O735  1  0.79720000  0.15052000  0.72198000  1
  O  O736  1  0.72198000  0.20280000  0.84948000  1
  O  O737  1  0.84948000  0.27802000  0.79720000  1
  O  O738  1  0.79720000  0.72198000  0.15052000  1
  O  O739  1  0.84948000  0.79720000  0.27802000  1
  O  O740  1  0.72198000  0.84948000  0.20280000  1
  O  O741  1  0.79720000  0.84948000  0.27802000  1
  O  O742  1  0.72198000  0.79720000  0.15052000  1
  O  O743  1  0.84948000  0.72198000  0.20280000  1
  O  O744  1  0.79720000  0.72198000  0.84948000  1
  O  O745  1  0.84948000  0.79720000  0.72198000  1
  O  O746  1  0.72198000  0.84948000  0.79720000  1
  O  O747  1  0.79720000  0.84948000  0.72198000  1
  O  O748  1  0.72198000  0.79720000  0.84948000  1
  O  O749  1  0.84948000  0.72198000  0.79720000  1
  O  O750  1  0.79720000  0.27802000  0.15052000  1
  O  O751  1  0.84948000  0.20280000  0.27802000  1
  O  O752  1  0.72198000  0.15052000  0.20280000  1
  O  O753  1  0.79720000  0.15052000  0.27802000  1
  O  O754  1  0.72198000  0.20280000  0.15052000  1
  O  O755  1  0.84948000  0.27802000  0.20280000  1
  O  O756  1  0.20280000  0.72198000  0.15052000  1
  O  O757  1  0.15052000  0.79720000  0.27802000  1
  O  O758  1  0.27802000  0.84948000  0.20280000  1
  O  O759  1  0.20280000  0.84948000  0.27802000  1
  O  O760  1  0.27802000  0.79720000  0.15052000  1
  O  O761  1  0.15052000  0.72198000  0.20280000  1
  O  O762  1  0.20280000  0.27802000  0.84948000  1
  O  O763  1  0.15052000  0.20280000  0.72198000  1
  O  O764  1  0.27802000  0.15052000  0.79720000  1
  O  O765  1  0.20280000  0.15052000  0.72198000  1
  O  O766  1  0.27802000  0.20280000  0.84948000  1
  O  O767  1  0.15052000  0.27802000  0.79720000  1
  O  O768  1  0.73819000  0.68553000  0.61112000  1
  O  O769  1  0.61112000  0.73819000  0.68553000  1
  O  O770  1  0.68553000  0.61112000  0.73819000  1
  O  O771  1  0.73819000  0.61112000  0.68553000  1
  O  O772  1  0.68553000  0.73819000  0.61112000  1
  O  O773  1  0.61112000  0.68553000  0.73819000  1
  O  O774  1  0.73819000  0.31447000  0.38888000  1
  O  O775  1  0.61112000  0.26181000  0.31447000  1
  O  O776  1  0.68553000  0.38888000  0.26181000  1
  O  O777  1  0.73819000  0.38888000  0.31447000  1
  O  O778  1  0.68553000  0.26181000  0.38888000  1
  O  O779  1  0.61112000  0.31447000  0.26181000  1
  O  O780  1  0.26181000  0.68553000  0.38888000  1
  O  O781  1  0.38888000  0.73819000  0.31447000  1
  O  O782  1  0.31447000  0.61112000  0.26181000  1
  O  O783  1  0.26181000  0.61112000  0.31447000  1
  O  O784  1  0.31447000  0.73819000  0.38888000  1
  O  O785  1  0.38888000  0.68553000  0.26181000  1
  O  O786  1  0.26181000  0.31447000  0.61112000  1
  O  O787  1  0.38888000  0.26181000  0.68553000  1
  O  O788  1  0.31447000  0.38888000  0.73819000  1
  O  O789  1  0.26181000  0.38888000  0.68553000  1
  O  O790  1  0.31447000  0.26181000  0.61112000  1
  O  O791  1  0.38888000  0.31447000  0.73819000  1
  O  O792  1  0.26181000  0.31447000  0.38888000  1
  O  O793  1  0.38888000  0.26181000  0.31447000  1
  O  O794  1  0.31447000  0.38888000  0.26181000  1
  O  O795  1  0.26181000  0.38888000  0.31447000  1
  O  O796  1  0.31447000  0.26181000  0.38888000  1
  O  O797  1  0.38888000  0.31447000  0.26181000  1
  O  O798  1  0.26181000  0.68553000  0.61112000  1
  O  O799  1  0.38888000  0.73819000  0.68553000  1
  O  O800  1  0.31447000  0.61112000  0.73819000  1
  O  O801  1  0.26181000  0.61112000  0.68553000  1
  O  O802  1  0.31447000  0.73819000  0.61112000  1
  O  O803  1  0.38888000  0.68553000  0.73819000  1
  O  O804  1  0.73819000  0.31447000  0.61112000  1
  O  O805  1  0.61112000  0.26181000  0.68553000  1
  O  O806  1  0.68553000  0.38888000  0.73819000  1
  O  O807  1  0.73819000  0.38888000  0.68553000  1
  O  O808  1  0.68553000  0.26181000  0.61112000  1
  O  O809  1  0.61112000  0.31447000  0.73819000  1
  O  O810  1  0.73819000  0.68553000  0.38888000  1
  O  O811  1  0.61112000  0.73819000  0.31447000  1
  O  O812  1  0.68553000  0.61112000  0.26181000  1
  O  O813  1  0.73819000  0.61112000  0.31447000  1
  O  O814  1  0.68553000  0.73819000  0.38888000  1
  O  O815  1  0.61112000  0.68553000  0.26181000  1
  O  O816  1  0.23819000  0.18553000  0.11112000  1
  O  O817  1  0.11112000  0.23819000  0.18553000  1
  O  O818  1  0.18553000  0.11112000  0.23819000  1
  O  O819  1  0.23819000  0.11112000  0.18553000  1
  O  O820  1  0.18553000  0.23819000  0.11112000  1
  O  O821  1  0.11112000  0.18553000  0.23819000  1
  O  O822  1  0.23819000  0.81447000  0.88888000  1
  O  O823  1  0.11112000  0.76181000  0.81447000  1
  O  O824  1  0.18553000  0.88888000  0.76181000  1
  O  O825  1  0.23819000  0.88888000  0.81447000  1
  O  O826  1  0.18553000  0.76181000  0.88888000  1
  O  O827  1  0.11112000  0.81447000  0.76181000  1
  O  O828  1  0.76181000  0.18553000  0.88888000  1
  O  O829  1  0.88888000  0.23819000  0.81447000  1
  O  O830  1  0.81447000  0.11112000  0.76181000  1
  O  O831  1  0.76181000  0.11112000  0.81447000  1
  O  O832  1  0.81447000  0.23819000  0.88888000  1
  O  O833  1  0.88888000  0.18553000  0.76181000  1
  O  O834  1  0.76181000  0.81447000  0.11112000  1
  O  O835  1  0.88888000  0.76181000  0.18553000  1
  O  O836  1  0.81447000  0.88888000  0.23819000  1
  O  O837  1  0.76181000  0.88888000  0.18553000  1
  O  O838  1  0.81447000  0.76181000  0.11112000  1
  O  O839  1  0.88888000  0.81447000  0.23819000  1
  O  O840  1  0.76181000  0.81447000  0.88888000  1
  O  O841  1  0.88888000  0.76181000  0.81447000  1
  O  O842  1  0.81447000  0.88888000  0.76181000  1
  O  O843  1  0.76181000  0.88888000  0.81447000  1
  O  O844  1  0.81447000  0.76181000  0.88888000  1
  O  O845  1  0.88888000  0.81447000  0.76181000  1
  O  O846  1  0.76181000  0.18553000  0.11112000  1
  O  O847  1  0.88888000  0.23819000  0.18553000  1
  O  O848  1  0.81447000  0.11112000  0.23819000  1
  O  O849  1  0.76181000  0.11112000  0.18553000  1
  O  O850  1  0.81447000  0.23819000  0.11112000  1
  O  O851  1  0.88888000  0.18553000  0.23819000  1
  O  O852  1  0.23819000  0.81447000  0.11112000  1
  O  O853  1  0.11112000  0.76181000  0.18553000  1
  O  O854  1  0.18553000  0.88888000  0.23819000  1
  O  O855  1  0.23819000  0.88888000  0.18553000  1
  O  O856  1  0.18553000  0.76181000  0.11112000  1
  O  O857  1  0.11112000  0.81447000  0.23819000  1
  O  O858  1  0.23819000  0.18553000  0.88888000  1
  O  O859  1  0.11112000  0.23819000  0.81447000  1
  O  O860  1  0.18553000  0.11112000  0.76181000  1
  O  O861  1  0.23819000  0.11112000  0.81447000  1
  O  O862  1  0.18553000  0.23819000  0.88888000  1
  O  O863  1  0.11112000  0.18553000  0.76181000  1
  O  O864  1  0.77804000  0.57142000  0.70308000  1
  O  O865  1  0.70308000  0.77804000  0.57142000  1
  O  O866  1  0.57142000  0.70308000  0.77804000  1
  O  O867  1  0.77804000  0.70308000  0.57142000  1
  O  O868  1  0.57142000  0.77804000  0.70308000  1
  O  O869  1  0.70308000  0.57142000  0.77804000  1
  O  O870  1  0.77804000  0.42858000  0.29692000  1
  O  O871  1  0.70308000  0.22196000  0.42858000  1
  O  O872  1  0.57142000  0.29692000  0.22196000  1
  O  O873  1  0.77804000  0.29692000  0.42858000  1
  O  O874  1  0.57142000  0.22196000  0.29692000  1
  O  O875  1  0.70308000  0.42858000  0.22196000  1
  O  O876  1  0.22196000  0.57142000  0.29692000  1
  O  O877  1  0.29692000  0.77804000  0.42858000  1
  O  O878  1  0.42858000  0.70308000  0.22196000  1
  O  O879  1  0.22196000  0.70308000  0.42858000  1
  O  O880  1  0.42858000  0.77804000  0.29692000  1
  O  O881  1  0.29692000  0.57142000  0.22196000  1
  O  O882  1  0.22196000  0.42858000  0.70308000  1
  O  O883  1  0.29692000  0.22196000  0.57142000  1
  O  O884  1  0.42858000  0.29692000  0.77804000  1
  O  O885  1  0.22196000  0.29692000  0.57142000  1
  O  O886  1  0.42858000  0.22196000  0.70308000  1
  O  O887  1  0.29692000  0.42858000  0.77804000  1
  O  O888  1  0.22196000  0.42858000  0.29692000  1
  O  O889  1  0.29692000  0.22196000  0.42858000  1
  O  O890  1  0.42858000  0.29692000  0.22196000  1
  O  O891  1  0.22196000  0.29692000  0.42858000  1
  O  O892  1  0.42858000  0.22196000  0.29692000  1
  O  O893  1  0.29692000  0.42858000  0.22196000  1
  O  O894  1  0.22196000  0.57142000  0.70308000  1
  O  O895  1  0.29692000  0.77804000  0.57142000  1
  O  O896  1  0.42858000  0.70308000  0.77804000  1
  O  O897  1  0.22196000  0.70308000  0.57142000  1
  O  O898  1  0.42858000  0.77804000  0.70308000  1
  O  O899  1  0.29692000  0.57142000  0.77804000  1
  O  O900  1  0.77804000  0.42858000  0.70308000  1
  O  O901  1  0.70308000  0.22196000  0.57142000  1
  O  O902  1  0.57142000  0.29692000  0.77804000  1
  O  O903  1  0.77804000  0.29692000  0.57142000  1
  O  O904  1  0.57142000  0.22196000  0.70308000  1
  O  O905  1  0.70308000  0.42858000  0.77804000  1
  O  O906  1  0.77804000  0.57142000  0.29692000  1
  O  O907  1  0.70308000  0.77804000  0.42858000  1
  O  O908  1  0.57142000  0.70308000  0.22196000  1
  O  O909  1  0.77804000  0.70308000  0.42858000  1
  O  O910  1  0.57142000  0.77804000  0.29692000  1
  O  O911  1  0.70308000  0.57142000  0.22196000  1
  O  O912  1  0.27804000  0.07142000  0.20308000  1
  O  O913  1  0.20308000  0.27804000  0.07142000  1
  O  O914  1  0.07142000  0.20308000  0.27804000  1
  O  O915  1  0.27804000  0.20308000  0.07142000  1
  O  O916  1  0.07142000  0.27804000  0.20308000  1
  O  O917  1  0.20308000  0.07142000  0.27804000  1
  O  O918  1  0.27804000  0.92858000  0.79692000  1
  O  O919  1  0.20308000  0.72196000  0.92858000  1
  O  O920  1  0.07142000  0.79692000  0.72196000  1
  O  O921  1  0.27804000  0.79692000  0.92858000  1
  O  O922  1  0.07142000  0.72196000  0.79692000  1
  O  O923  1  0.20308000  0.92858000  0.72196000  1
  O  O924  1  0.72196000  0.07142000  0.79692000  1
  O  O925  1  0.79692000  0.27804000  0.92858000  1
  O  O926  1  0.92858000  0.20308000  0.72196000  1
  O  O927  1  0.72196000  0.20308000  0.92858000  1
  O  O928  1  0.92858000  0.27804000  0.79692000  1
  O  O929  1  0.79692000  0.07142000  0.72196000  1
  O  O930  1  0.72196000  0.92858000  0.20308000  1
  O  O931  1  0.79692000  0.72196000  0.07142000  1
  O  O932  1  0.92858000  0.79692000  0.27804000  1
  O  O933  1  0.72196000  0.79692000  0.07142000  1
  O  O934  1  0.92858000  0.72196000  0.20308000  1
  O  O935  1  0.79692000  0.92858000  0.27804000  1
  O  O936  1  0.72196000  0.92858000  0.79692000  1
  O  O937  1  0.79692000  0.72196000  0.92858000  1
  O  O938  1  0.92858000  0.79692000  0.72196000  1
  O  O939  1  0.72196000  0.79692000  0.92858000  1
  O  O940  1  0.92858000  0.72196000  0.79692000  1
  O  O941  1  0.79692000  0.92858000  0.72196000  1
  O  O942  1  0.72196000  0.07142000  0.20308000  1
  O  O943  1  0.79692000  0.27804000  0.07142000  1
  O  O944  1  0.92858000  0.20308000  0.27804000  1
  O  O945  1  0.72196000  0.20308000  0.07142000  1
  O  O946  1  0.92858000  0.27804000  0.20308000  1
  O  O947  1  0.79692000  0.07142000  0.27804000  1
  O  O948  1  0.27804000  0.92858000  0.20308000  1
  O  O949  1  0.20308000  0.72196000  0.07142000  1
  O  O950  1  0.07142000  0.79692000  0.27804000  1
  O  O951  1  0.27804000  0.79692000  0.07142000  1
  O  O952  1  0.07142000  0.72196000  0.20308000  1
  O  O953  1  0.20308000  0.92858000  0.27804000  1
  O  O954  1  0.27804000  0.07142000  0.79692000  1
  O  O955  1  0.20308000  0.27804000  0.92858000  1
  O  O956  1  0.07142000  0.20308000  0.72196000  1
  O  O957  1  0.27804000  0.20308000  0.92858000  1
  O  O958  1  0.07142000  0.27804000  0.79692000  1
  O  O959  1  0.20308000  0.07142000  0.72196000  1
  O  O960  1  0.33314000  0.55514000  0.17875000  1
  O  O961  1  0.17875000  0.33314000  0.55514000  1
  O  O962  1  0.55514000  0.17875000  0.33314000  1
  O  O963  1  0.33314000  0.17875000  0.55514000  1
  O  O964  1  0.55514000  0.33314000  0.17875000  1
  O  O965  1  0.17875000  0.55514000  0.33314000  1
  O  O966  1  0.33314000  0.44486000  0.82125000  1
  O  O967  1  0.17875000  0.66686000  0.44486000  1
  O  O968  1  0.55514000  0.82125000  0.66686000  1
  O  O969  1  0.33314000  0.82125000  0.44486000  1
  O  O970  1  0.55514000  0.66686000  0.82125000  1
  O  O971  1  0.17875000  0.44486000  0.66686000  1
  O  O972  1  0.66686000  0.55514000  0.82125000  1
  O  O973  1  0.82125000  0.33314000  0.44486000  1
  O  O974  1  0.44486000  0.17875000  0.66686000  1
  O  O975  1  0.66686000  0.17875000  0.44486000  1
  O  O976  1  0.44486000  0.33314000  0.82125000  1
  O  O977  1  0.82125000  0.55514000  0.66686000  1
  O  O978  1  0.66686000  0.44486000  0.17875000  1
  O  O979  1  0.82125000  0.66686000  0.55514000  1
  O  O980  1  0.44486000  0.82125000  0.33314000  1
  O  O981  1  0.66686000  0.82125000  0.55514000  1
  O  O982  1  0.44486000  0.66686000  0.17875000  1
  O  O983  1  0.82125000  0.44486000  0.33314000  1
  O  O984  1  0.66686000  0.44486000  0.82125000  1
  O  O985  1  0.82125000  0.66686000  0.44486000  1
  O  O986  1  0.44486000  0.82125000  0.66686000  1
  O  O987  1  0.66686000  0.82125000  0.44486000  1
  O  O988  1  0.44486000  0.66686000  0.82125000  1
  O  O989  1  0.82125000  0.44486000  0.66686000  1
  O  O990  1  0.66686000  0.55514000  0.17875000  1
  O  O991  1  0.82125000  0.33314000  0.55514000  1
  O  O992  1  0.44486000  0.17875000  0.33314000  1
  O  O993  1  0.66686000  0.17875000  0.55514000  1
  O  O994  1  0.44486000  0.33314000  0.17875000  1
  O  O995  1  0.82125000  0.55514000  0.33314000  1
  O  O996  1  0.33314000  0.44486000  0.17875000  1
  O  O997  1  0.17875000  0.66686000  0.55514000  1
  O  O998  1  0.55514000  0.82125000  0.33314000  1
  O  O999  1  0.33314000  0.82125000  0.55514000  1
  O  O1000  1  0.55514000  0.66686000  0.17875000  1
  O  O1001  1  0.17875000  0.44486000  0.33314000  1
  O  O1002  1  0.33314000  0.55514000  0.82125000  1
  O  O1003  1  0.17875000  0.33314000  0.44486000  1
  O  O1004  1  0.55514000  0.17875000  0.66686000  1
  O  O1005  1  0.33314000  0.17875000  0.44486000  1
  O  O1006  1  0.55514000  0.33314000  0.82125000  1
  O  O1007  1  0.17875000  0.55514000  0.66686000  1
  O  O1008  1  0.83314000  0.05514000  0.67875000  1
  O  O1009  1  0.67875000  0.83314000  0.05514000  1
  O  O1010  1  0.05514000  0.67875000  0.83314000  1
  O  O1011  1  0.83314000  0.67875000  0.05514000  1
  O  O1012  1  0.05514000  0.83314000  0.67875000  1
  O  O1013  1  0.67875000  0.05514000  0.83314000  1
  O  O1014  1  0.83314000  0.94486000  0.32125000  1
  O  O1015  1  0.67875000  0.16686000  0.94486000  1
  O  O1016  1  0.05514000  0.32125000  0.16686000  1
  O  O1017  1  0.83314000  0.32125000  0.94486000  1
  O  O1018  1  0.05514000  0.16686000  0.32125000  1
  O  O1019  1  0.67875000  0.94486000  0.16686000  1
  O  O1020  1  0.16686000  0.05514000  0.32125000  1
  O  O1021  1  0.32125000  0.83314000  0.94486000  1
  O  O1022  1  0.94486000  0.67875000  0.16686000  1
  O  O1023  1  0.16686000  0.67875000  0.94486000  1
  O  O1024  1  0.94486000  0.83314000  0.32125000  1
  O  O1025  1  0.32125000  0.05514000  0.16686000  1
  O  O1026  1  0.16686000  0.94486000  0.67875000  1
  O  O1027  1  0.32125000  0.16686000  0.05514000  1
  O  O1028  1  0.94486000  0.32125000  0.83314000  1
  O  O1029  1  0.16686000  0.32125000  0.05514000  1
  O  O1030  1  0.94486000  0.16686000  0.67875000  1
  O  O1031  1  0.32125000  0.94486000  0.83314000  1
  O  O1032  1  0.16686000  0.94486000  0.32125000  1
  O  O1033  1  0.32125000  0.16686000  0.94486000  1
  O  O1034  1  0.94486000  0.32125000  0.16686000  1
  O  O1035  1  0.16686000  0.32125000  0.94486000  1
  O  O1036  1  0.94486000  0.16686000  0.32125000  1
  O  O1037  1  0.32125000  0.94486000  0.16686000  1
  O  O1038  1  0.16686000  0.05514000  0.67875000  1
  O  O1039  1  0.32125000  0.83314000  0.05514000  1
  O  O1040  1  0.94486000  0.67875000  0.83314000  1
  O  O1041  1  0.16686000  0.67875000  0.05514000  1
  O  O1042  1  0.94486000  0.83314000  0.67875000  1
  O  O1043  1  0.32125000  0.05514000  0.83314000  1
  O  O1044  1  0.83314000  0.94486000  0.67875000  1
  O  O1045  1  0.67875000  0.16686000  0.05514000  1
  O  O1046  1  0.05514000  0.32125000  0.83314000  1
  O  O1047  1  0.83314000  0.32125000  0.05514000  1
  O  O1048  1  0.05514000  0.16686000  0.67875000  1
  O  O1049  1  0.67875000  0.94486000  0.83314000  1
  O  O1050  1  0.83314000  0.05514000  0.32125000  1
  O  O1051  1  0.67875000  0.83314000  0.94486000  1
  O  O1052  1  0.05514000  0.67875000  0.16686000  1
  O  O1053  1  0.83314000  0.67875000  0.94486000  1
  O  O1054  1  0.05514000  0.83314000  0.32125000  1
  O  O1055  1  0.67875000  0.05514000  0.16686000  1
  O  O1056  1  0.33278000  0.55534000  0.26574000  1
  O  O1057  1  0.26574000  0.33278000  0.55534000  1
  O  O1058  1  0.55534000  0.26574000  0.33278000  1
  O  O1059  1  0.33278000  0.26574000  0.55534000  1
  O  O1060  1  0.55534000  0.33278000  0.26574000  1
  O  O1061  1  0.26574000  0.55534000  0.33278000  1
  O  O1062  1  0.33278000  0.44466000  0.73426000  1
  O  O1063  1  0.26574000  0.66722000  0.44466000  1
  O  O1064  1  0.55534000  0.73426000  0.66722000  1
  O  O1065  1  0.33278000  0.73426000  0.44466000  1
  O  O1066  1  0.55534000  0.66722000  0.73426000  1
  O  O1067  1  0.26574000  0.44466000  0.66722000  1
  O  O1068  1  0.66722000  0.55534000  0.73426000  1
  O  O1069  1  0.73426000  0.33278000  0.44466000  1
  O  O1070  1  0.44466000  0.26574000  0.66722000  1
  O  O1071  1  0.66722000  0.26574000  0.44466000  1
  O  O1072  1  0.44466000  0.33278000  0.73426000  1
  O  O1073  1  0.73426000  0.55534000  0.66722000  1
  O  O1074  1  0.66722000  0.44466000  0.26574000  1
  O  O1075  1  0.73426000  0.66722000  0.55534000  1
  O  O1076  1  0.44466000  0.73426000  0.33278000  1
  O  O1077  1  0.66722000  0.73426000  0.55534000  1
  O  O1078  1  0.44466000  0.66722000  0.26574000  1
  O  O1079  1  0.73426000  0.44466000  0.33278000  1
  O  O1080  1  0.66722000  0.44466000  0.73426000  1
  O  O1081  1  0.73426000  0.66722000  0.44466000  1
  O  O1082  1  0.44466000  0.73426000  0.66722000  1
  O  O1083  1  0.66722000  0.73426000  0.44466000  1
  O  O1084  1  0.44466000  0.66722000  0.73426000  1
  O  O1085  1  0.73426000  0.44466000  0.66722000  1
  O  O1086  1  0.66722000  0.55534000  0.26574000  1
  O  O1087  1  0.73426000  0.33278000  0.55534000  1
  O  O1088  1  0.44466000  0.26574000  0.33278000  1
  O  O1089  1  0.66722000  0.26574000  0.55534000  1
  O  O1090  1  0.44466000  0.33278000  0.26574000  1
  O  O1091  1  0.73426000  0.55534000  0.33278000  1
  O  O1092  1  0.33278000  0.44466000  0.26574000  1
  O  O1093  1  0.26574000  0.66722000  0.55534000  1
  O  O1094  1  0.55534000  0.73426000  0.33278000  1
  O  O1095  1  0.33278000  0.73426000  0.55534000  1
  O  O1096  1  0.55534000  0.66722000  0.26574000  1
  O  O1097  1  0.26574000  0.44466000  0.33278000  1
  O  O1098  1  0.33278000  0.55534000  0.73426000  1
  O  O1099  1  0.26574000  0.33278000  0.44466000  1
  O  O1100  1  0.55534000  0.26574000  0.66722000  1
  O  O1101  1  0.33278000  0.26574000  0.44466000  1
  O  O1102  1  0.55534000  0.33278000  0.73426000  1
  O  O1103  1  0.26574000  0.55534000  0.66722000  1
  O  O1104  1  0.83278000  0.05534000  0.76574000  1
  O  O1105  1  0.76574000  0.83278000  0.05534000  1
  O  O1106  1  0.05534000  0.76574000  0.83278000  1
  O  O1107  1  0.83278000  0.76574000  0.05534000  1
  O  O1108  1  0.05534000  0.83278000  0.76574000  1
  O  O1109  1  0.76574000  0.05534000  0.83278000  1
  O  O1110  1  0.83278000  0.94466000  0.23426000  1
  O  O1111  1  0.76574000  0.16722000  0.94466000  1
  O  O1112  1  0.05534000  0.23426000  0.16722000  1
  O  O1113  1  0.83278000  0.23426000  0.94466000  1
  O  O1114  1  0.05534000  0.16722000  0.23426000  1
  O  O1115  1  0.76574000  0.94466000  0.16722000  1
  O  O1116  1  0.16722000  0.05534000  0.23426000  1
  O  O1117  1  0.23426000  0.83278000  0.94466000  1
  O  O1118  1  0.94466000  0.76574000  0.16722000  1
  O  O1119  1  0.16722000  0.76574000  0.94466000  1
  O  O1120  1  0.94466000  0.83278000  0.23426000  1
  O  O1121  1  0.23426000  0.05534000  0.16722000  1
  O  O1122  1  0.16722000  0.94466000  0.76574000  1
  O  O1123  1  0.23426000  0.16722000  0.05534000  1
  O  O1124  1  0.94466000  0.23426000  0.83278000  1
  O  O1125  1  0.16722000  0.23426000  0.05534000  1
  O  O1126  1  0.94466000  0.16722000  0.76574000  1
  O  O1127  1  0.23426000  0.94466000  0.83278000  1
  O  O1128  1  0.16722000  0.94466000  0.23426000  1
  O  O1129  1  0.23426000  0.16722000  0.94466000  1
  O  O1130  1  0.94466000  0.23426000  0.16722000  1
  O  O1131  1  0.16722000  0.23426000  0.94466000  1
  O  O1132  1  0.94466000  0.16722000  0.23426000  1
  O  O1133  1  0.23426000  0.94466000  0.16722000  1
  O  O1134  1  0.16722000  0.05534000  0.76574000  1
  O  O1135  1  0.23426000  0.83278000  0.05534000  1
  O  O1136  1  0.94466000  0.76574000  0.83278000  1
  O  O1137  1  0.16722000  0.76574000  0.05534000  1
  O  O1138  1  0.94466000  0.83278000  0.76574000  1
  O  O1139  1  0.23426000  0.05534000  0.83278000  1
  O  O1140  1  0.83278000  0.94466000  0.76574000  1
  O  O1141  1  0.76574000  0.16722000  0.05534000  1
  O  O1142  1  0.05534000  0.23426000  0.83278000  1
  O  O1143  1  0.83278000  0.23426000  0.05534000  1
  O  O1144  1  0.05534000  0.16722000  0.76574000  1
  O  O1145  1  0.76574000  0.94466000  0.83278000  1
  O  O1146  1  0.83278000  0.05534000  0.23426000  1
  O  O1147  1  0.76574000  0.83278000  0.94466000  1
  O  O1148  1  0.05534000  0.76574000  0.16722000  1
  O  O1149  1  0.83278000  0.76574000  0.94466000  1
  O  O1150  1  0.05534000  0.83278000  0.23426000  1
  O  O1151  1  0.76574000  0.05534000  0.16722000  1
  O  O1152  1  0.93244000  0.77717000  0.66666667  1
  O  O1153  1  0.66666667  0.93244000  0.77717000  1
  O  O1154  1  0.77717000  0.66666667  0.93244000  1
  O  O1155  1  0.93244000  0.66666667  0.77717000  1
  O  O1156  1  0.77717000  0.93244000  0.66666667  1
  O  O1157  1  0.66666667  0.77717000  0.93244000  1
  O  O1158  1  0.93244000  0.22283000  0.33333333  1
  O  O1159  1  0.66666667  0.06756000  0.22283000  1
  O  O1160  1  0.77717000  0.33333333  0.06756000  1
  O  O1161  1  0.93244000  0.33333333  0.22283000  1
  O  O1162  1  0.77717000  0.06756000  0.33333333  1
  O  O1163  1  0.66666667  0.22283000  0.06756000  1
  O  O1164  1  0.06756000  0.77717000  0.33333333  1
  O  O1165  1  0.33333333  0.93244000  0.22283000  1
  O  O1166  1  0.22283000  0.66666667  0.06756000  1
  O  O1167  1  0.06756000  0.66666667  0.22283000  1
  O  O1168  1  0.22283000  0.93244000  0.33333333  1
  O  O1169  1  0.33333333  0.77717000  0.06756000  1
  O  O1170  1  0.06756000  0.22283000  0.66666667  1
  O  O1171  1  0.33333333  0.06756000  0.77717000  1
  O  O1172  1  0.22283000  0.33333333  0.93244000  1
  O  O1173  1  0.06756000  0.33333333  0.77717000  1
  O  O1174  1  0.22283000  0.06756000  0.66666667  1
  O  O1175  1  0.33333333  0.22283000  0.93244000  1
  O  O1176  1  0.06756000  0.22283000  0.33333333  1
  O  O1177  1  0.33333333  0.06756000  0.22283000  1
  O  O1178  1  0.22283000  0.33333333  0.06756000  1
  O  O1179  1  0.06756000  0.33333333  0.22283000  1
  O  O1180  1  0.22283000  0.06756000  0.33333333  1
  O  O1181  1  0.33333333  0.22283000  0.06756000  1
  O  O1182  1  0.06756000  0.77717000  0.66666667  1
  O  O1183  1  0.33333333  0.93244000  0.77717000  1
  O  O1184  1  0.22283000  0.66666667  0.93244000  1
  O  O1185  1  0.06756000  0.66666667  0.77717000  1
  O  O1186  1  0.22283000  0.93244000  0.66666667  1
  O  O1187  1  0.33333333  0.77717000  0.93244000  1
  O  O1188  1  0.93244000  0.22283000  0.66666667  1
  O  O1189  1  0.66666667  0.06756000  0.77717000  1
  O  O1190  1  0.77717000  0.33333333  0.93244000  1
  O  O1191  1  0.93244000  0.33333333  0.77717000  1
  O  O1192  1  0.77717000  0.06756000  0.66666667  1
  O  O1193  1  0.66666667  0.22283000  0.93244000  1
  O  O1194  1  0.93244000  0.77717000  0.33333333  1
  O  O1195  1  0.66666667  0.93244000  0.22283000  1
  O  O1196  1  0.77717000  0.66666667  0.06756000  1
  O  O1197  1  0.93244000  0.66666667  0.22283000  1
  O  O1198  1  0.77717000  0.93244000  0.33333333  1
  O  O1199  1  0.66666667  0.77717000  0.06756000  1
  O  O1200  1  0.43244000  0.27717000  0.16666667  1
  O  O1201  1  0.16666667  0.43244000  0.27717000  1
  O  O1202  1  0.27717000  0.16666667  0.43244000  1
  O  O1203  1  0.43244000  0.16666667  0.27717000  1
  O  O1204  1  0.27717000  0.43244000  0.16666667  1
  O  O1205  1  0.16666667  0.27717000  0.43244000  1
  O  O1206  1  0.43244000  0.72283000  0.83333333  1
  O  O1207  1  0.16666667  0.56756000  0.72283000  1
  O  O1208  1  0.27717000  0.83333333  0.56756000  1
  O  O1209  1  0.43244000  0.83333333  0.72283000  1
  O  O1210  1  0.27717000  0.56756000  0.83333333  1
  O  O1211  1  0.16666667  0.72283000  0.56756000  1
  O  O1212  1  0.56756000  0.27717000  0.83333333  1
  O  O1213  1  0.83333333  0.43244000  0.72283000  1
  O  O1214  1  0.72283000  0.16666667  0.56756000  1
  O  O1215  1  0.56756000  0.16666667  0.72283000  1
  O  O1216  1  0.72283000  0.43244000  0.83333333  1
  O  O1217  1  0.83333333  0.27717000  0.56756000  1
  O  O1218  1  0.56756000  0.72283000  0.16666667  1
  O  O1219  1  0.83333333  0.56756000  0.27717000  1
  O  O1220  1  0.72283000  0.83333333  0.43244000  1
  O  O1221  1  0.56756000  0.83333333  0.27717000  1
  O  O1222  1  0.72283000  0.56756000  0.16666667  1
  O  O1223  1  0.83333333  0.72283000  0.43244000  1
  O  O1224  1  0.56756000  0.72283000  0.83333333  1
  O  O1225  1  0.83333333  0.56756000  0.72283000  1
  O  O1226  1  0.72283000  0.83333333  0.56756000  1
  O  O1227  1  0.56756000  0.83333333  0.72283000  1
  O  O1228  1  0.72283000  0.56756000  0.83333333  1
  O  O1229  1  0.83333333  0.72283000  0.56756000  1
  O  O1230  1  0.56756000  0.27717000  0.16666667  1
  O  O1231  1  0.83333333  0.43244000  0.27717000  1
  O  O1232  1  0.72283000  0.16666667  0.43244000  1
  O  O1233  1  0.56756000  0.16666667  0.27717000  1
  O  O1234  1  0.72283000  0.43244000  0.16666667  1
  O  O1235  1  0.83333333  0.27717000  0.43244000  1
  O  O1236  1  0.43244000  0.72283000  0.16666667  1
  O  O1237  1  0.16666667  0.56756000  0.27717000  1
  O  O1238  1  0.27717000  0.83333333  0.43244000  1
  O  O1239  1  0.43244000  0.83333333  0.27717000  1
  O  O1240  1  0.27717000  0.56756000  0.16666667  1
  O  O1241  1  0.16666667  0.72283000  0.43244000  1
  O  O1242  1  0.43244000  0.27717000  0.83333333  1
  O  O1243  1  0.16666667  0.43244000  0.72283000  1
  O  O1244  1  0.27717000  0.16666667  0.56756000  1
  O  O1245  1  0.43244000  0.16666667  0.72283000  1
  O  O1246  1  0.27717000  0.43244000  0.83333333  1
  O  O1247  1  0.16666667  0.27717000  0.56756000  1
  O  O1248  1  0.94502000  0.83357000  0.45804000  1
  O  O1249  1  0.45804000  0.94502000  0.83357000  1
  O  O1250  1  0.83357000  0.45804000  0.94502000  1
  O  O1251  1  0.94502000  0.45804000  0.83357000  1
  O  O1252  1  0.83357000  0.94502000  0.45804000  1
  O  O1253  1  0.45804000  0.83357000  0.94502000  1
  O  O1254  1  0.94502000  0.16643000  0.54196000  1
  O  O1255  1  0.45804000  0.05498000  0.16643000  1
  O  O1256  1  0.83357000  0.54196000  0.05498000  1
  O  O1257  1  0.94502000  0.54196000  0.16643000  1
  O  O1258  1  0.83357000  0.05498000  0.54196000  1
  O  O1259  1  0.45804000  0.16643000  0.05498000  1
  O  O1260  1  0.05498000  0.83357000  0.54196000  1
  O  O1261  1  0.54196000  0.94502000  0.16643000  1
  O  O1262  1  0.16643000  0.45804000  0.05498000  1
  O  O1263  1  0.05498000  0.45804000  0.16643000  1
  O  O1264  1  0.16643000  0.94502000  0.54196000  1
  O  O1265  1  0.54196000  0.83357000  0.05498000  1
  O  O1266  1  0.05498000  0.16643000  0.45804000  1
  O  O1267  1  0.54196000  0.05498000  0.83357000  1
  O  O1268  1  0.16643000  0.54196000  0.94502000  1
  O  O1269  1  0.05498000  0.54196000  0.83357000  1
  O  O1270  1  0.16643000  0.05498000  0.45804000  1
  O  O1271  1  0.54196000  0.16643000  0.94502000  1
  O  O1272  1  0.05498000  0.16643000  0.54196000  1
  O  O1273  1  0.54196000  0.05498000  0.16643000  1
  O  O1274  1  0.16643000  0.54196000  0.05498000  1
  O  O1275  1  0.05498000  0.54196000  0.16643000  1
  O  O1276  1  0.16643000  0.05498000  0.54196000  1
  O  O1277  1  0.54196000  0.16643000  0.05498000  1
  O  O1278  1  0.05498000  0.83357000  0.45804000  1
  O  O1279  1  0.54196000  0.94502000  0.83357000  1
  O  O1280  1  0.16643000  0.45804000  0.94502000  1
  O  O1281  1  0.05498000  0.45804000  0.83357000  1
  O  O1282  1  0.16643000  0.94502000  0.45804000  1
  O  O1283  1  0.54196000  0.83357000  0.94502000  1
  O  O1284  1  0.94502000  0.16643000  0.45804000  1
  O  O1285  1  0.45804000  0.05498000  0.83357000  1
  O  O1286  1  0.83357000  0.54196000  0.94502000  1
  O  O1287  1  0.94502000  0.54196000  0.83357000  1
  O  O1288  1  0.83357000  0.05498000  0.45804000  1
  O  O1289  1  0.45804000  0.16643000  0.94502000  1
  O  O1290  1  0.94502000  0.83357000  0.54196000  1
  O  O1291  1  0.45804000  0.94502000  0.16643000  1
  O  O1292  1  0.83357000  0.45804000  0.05498000  1
  O  O1293  1  0.94502000  0.45804000  0.16643000  1
  O  O1294  1  0.83357000  0.94502000  0.54196000  1
  O  O1295  1  0.45804000  0.83357000  0.05498000  1
  O  O1296  1  0.44502000  0.33357000  0.95804000  1
  O  O1297  1  0.95804000  0.44502000  0.33357000  1
  O  O1298  1  0.33357000  0.95804000  0.44502000  1
  O  O1299  1  0.44502000  0.95804000  0.33357000  1
  O  O1300  1  0.33357000  0.44502000  0.95804000  1
  O  O1301  1  0.95804000  0.33357000  0.44502000  1
  O  O1302  1  0.44502000  0.66643000  0.04196000  1
  O  O1303  1  0.95804000  0.55498000  0.66643000  1
  O  O1304  1  0.33357000  0.04196000  0.55498000  1
  O  O1305  1  0.44502000  0.04196000  0.66643000  1
  O  O1306  1  0.33357000  0.55498000  0.04196000  1
  O  O1307  1  0.95804000  0.66643000  0.55498000  1
  O  O1308  1  0.55498000  0.33357000  0.04196000  1
  O  O1309  1  0.04196000  0.44502000  0.66643000  1
  O  O1310  1  0.66643000  0.95804000  0.55498000  1
  O  O1311  1  0.55498000  0.95804000  0.66643000  1
  O  O1312  1  0.66643000  0.44502000  0.04196000  1
  O  O1313  1  0.04196000  0.33357000  0.55498000  1
  O  O1314  1  0.55498000  0.66643000  0.95804000  1
  O  O1315  1  0.04196000  0.55498000  0.33357000  1
  O  O1316  1  0.66643000  0.04196000  0.44502000  1
  O  O1317  1  0.55498000  0.04196000  0.33357000  1
  O  O1318  1  0.66643000  0.55498000  0.95804000  1
  O  O1319  1  0.04196000  0.66643000  0.44502000  1
  O  O1320  1  0.55498000  0.66643000  0.04196000  1
  O  O1321  1  0.04196000  0.55498000  0.66643000  1
  O  O1322  1  0.66643000  0.04196000  0.55498000  1
  O  O1323  1  0.55498000  0.04196000  0.66643000  1
  O  O1324  1  0.66643000  0.55498000  0.04196000  1
  O  O1325  1  0.04196000  0.66643000  0.55498000  1
  O  O1326  1  0.55498000  0.33357000  0.95804000  1
  O  O1327  1  0.04196000  0.44502000  0.33357000  1
  O  O1328  1  0.66643000  0.95804000  0.44502000  1
  O  O1329  1  0.55498000  0.95804000  0.33357000  1
  O  O1330  1  0.66643000  0.44502000  0.95804000  1
  O  O1331  1  0.04196000  0.33357000  0.44502000  1
  O  O1332  1  0.44502000  0.66643000  0.95804000  1
  O  O1333  1  0.95804000  0.55498000  0.33357000  1
  O  O1334  1  0.33357000  0.04196000  0.44502000  1
  O  O1335  1  0.44502000  0.04196000  0.33357000  1
  O  O1336  1  0.33357000  0.55498000  0.95804000  1
  O  O1337  1  0.95804000  0.66643000  0.44502000  1
  O  O1338  1  0.44502000  0.33357000  0.04196000  1
  O  O1339  1  0.95804000  0.44502000  0.66643000  1
  O  O1340  1  0.33357000  0.95804000  0.55498000  1
  O  O1341  1  0.44502000  0.95804000  0.66643000  1
  O  O1342  1  0.33357000  0.44502000  0.04196000  1
  O  O1343  1  0.95804000  0.33357000  0.55498000  1
  O  O1344  1  0.77818000  0.93259000  0.44384000  1
  O  O1345  1  0.44384000  0.77818000  0.93259000  1
  O  O1346  1  0.93259000  0.44384000  0.77818000  1
  O  O1347  1  0.77818000  0.44384000  0.93259000  1
  O  O1348  1  0.93259000  0.77818000  0.44384000  1
  O  O1349  1  0.44384000  0.93259000  0.77818000  1
  O  O1350  1  0.77818000  0.06741000  0.55616000  1
  O  O1351  1  0.44384000  0.22182000  0.06741000  1
  O  O1352  1  0.93259000  0.55616000  0.22182000  1
  O  O1353  1  0.77818000  0.55616000  0.06741000  1
  O  O1354  1  0.93259000  0.22182000  0.55616000  1
  O  O1355  1  0.44384000  0.06741000  0.22182000  1
  O  O1356  1  0.22182000  0.93259000  0.55616000  1
  O  O1357  1  0.55616000  0.77818000  0.06741000  1
  O  O1358  1  0.06741000  0.44384000  0.22182000  1
  O  O1359  1  0.22182000  0.44384000  0.06741000  1
  O  O1360  1  0.06741000  0.77818000  0.55616000  1
  O  O1361  1  0.55616000  0.93259000  0.22182000  1
  O  O1362  1  0.22182000  0.06741000  0.44384000  1
  O  O1363  1  0.55616000  0.22182000  0.93259000  1
  O  O1364  1  0.06741000  0.55616000  0.77818000  1
  O  O1365  1  0.22182000  0.55616000  0.93259000  1
  O  O1366  1  0.06741000  0.22182000  0.44384000  1
  O  O1367  1  0.55616000  0.06741000  0.77818000  1
  O  O1368  1  0.22182000  0.06741000  0.55616000  1
  O  O1369  1  0.55616000  0.22182000  0.06741000  1
  O  O1370  1  0.06741000  0.55616000  0.22182000  1
  O  O1371  1  0.22182000  0.55616000  0.06741000  1
  O  O1372  1  0.06741000  0.22182000  0.55616000  1
  O  O1373  1  0.55616000  0.06741000  0.22182000  1
  O  O1374  1  0.22182000  0.93259000  0.44384000  1
  O  O1375  1  0.55616000  0.77818000  0.93259000  1
  O  O1376  1  0.06741000  0.44384000  0.77818000  1
  O  O1377  1  0.22182000  0.44384000  0.93259000  1
  O  O1378  1  0.06741000  0.77818000  0.44384000  1
  O  O1379  1  0.55616000  0.93259000  0.77818000  1
  O  O1380  1  0.77818000  0.06741000  0.44384000  1
  O  O1381  1  0.44384000  0.22182000  0.93259000  1
  O  O1382  1  0.93259000  0.55616000  0.77818000  1
  O  O1383  1  0.77818000  0.55616000  0.93259000  1
  O  O1384  1  0.93259000  0.22182000  0.44384000  1
  O  O1385  1  0.44384000  0.06741000  0.77818000  1
  O  O1386  1  0.77818000  0.93259000  0.55616000  1
  O  O1387  1  0.44384000  0.77818000  0.06741000  1
  O  O1388  1  0.93259000  0.44384000  0.22182000  1
  O  O1389  1  0.77818000  0.44384000  0.06741000  1
  O  O1390  1  0.93259000  0.77818000  0.55616000  1
  O  O1391  1  0.44384000  0.93259000  0.22182000  1
  O  O1392  1  0.27818000  0.43259000  0.94384000  1
  O  O1393  1  0.94384000  0.27818000  0.43259000  1
  O  O1394  1  0.43259000  0.94384000  0.27818000  1
  O  O1395  1  0.27818000  0.94384000  0.43259000  1
  O  O1396  1  0.43259000  0.27818000  0.94384000  1
  O  O1397  1  0.94384000  0.43259000  0.27818000  1
  O  O1398  1  0.27818000  0.56741000  0.05616000  1
  O  O1399  1  0.94384000  0.72182000  0.56741000  1
  O  O1400  1  0.43259000  0.05616000  0.72182000  1
  O  O1401  1  0.27818000  0.05616000  0.56741000  1
  O  O1402  1  0.43259000  0.72182000  0.05616000  1
  O  O1403  1  0.94384000  0.56741000  0.72182000  1
  O  O1404  1  0.72182000  0.43259000  0.05616000  1
  O  O1405  1  0.05616000  0.27818000  0.56741000  1
  O  O1406  1  0.56741000  0.94384000  0.72182000  1
  O  O1407  1  0.72182000  0.94384000  0.56741000  1
  O  O1408  1  0.56741000  0.27818000  0.05616000  1
  O  O1409  1  0.05616000  0.43259000  0.72182000  1
  O  O1410  1  0.72182000  0.56741000  0.94384000  1
  O  O1411  1  0.05616000  0.72182000  0.43259000  1
  O  O1412  1  0.56741000  0.05616000  0.27818000  1
  O  O1413  1  0.72182000  0.05616000  0.43259000  1
  O  O1414  1  0.56741000  0.72182000  0.94384000  1
  O  O1415  1  0.05616000  0.56741000  0.27818000  1
  O  O1416  1  0.72182000  0.56741000  0.05616000  1
  O  O1417  1  0.05616000  0.72182000  0.56741000  1
  O  O1418  1  0.56741000  0.05616000  0.72182000  1
  O  O1419  1  0.72182000  0.05616000  0.56741000  1
  O  O1420  1  0.56741000  0.72182000  0.05616000  1
  O  O1421  1  0.05616000  0.56741000  0.72182000  1
  O  O1422  1  0.72182000  0.43259000  0.94384000  1
  O  O1423  1  0.05616000  0.27818000  0.43259000  1
  O  O1424  1  0.56741000  0.94384000  0.27818000  1
  O  O1425  1  0.72182000  0.94384000  0.43259000  1
  O  O1426  1  0.56741000  0.27818000  0.94384000  1
  O  O1427  1  0.05616000  0.43259000  0.27818000  1
  O  O1428  1  0.27818000  0.56741000  0.94384000  1
  O  O1429  1  0.94384000  0.72182000  0.43259000  1
  O  O1430  1  0.43259000  0.05616000  0.27818000  1
  O  O1431  1  0.27818000  0.05616000  0.43259000  1
  O  O1432  1  0.43259000  0.72182000  0.94384000  1
  O  O1433  1  0.94384000  0.56741000  0.27818000  1
  O  O1434  1  0.27818000  0.43259000  0.05616000  1
  O  O1435  1  0.94384000  0.27818000  0.56741000  1
  O  O1436  1  0.43259000  0.94384000  0.72182000  1
  O  O1437  1  0.27818000  0.94384000  0.56741000  1
  O  O1438  1  0.43259000  0.27818000  0.05616000  1
  O  O1439  1  0.94384000  0.43259000  0.72182000  1
  O  O1440  1  0.77804000  0.66658000  0.84558000  1
  O  O1441  1  0.84558000  0.77804000  0.66658000  1
  O  O1442  1  0.66658000  0.84558000  0.77804000  1
  O  O1443  1  0.77804000  0.84558000  0.66658000  1
  O  O1444  1  0.66658000  0.77804000  0.84558000  1
  O  O1445  1  0.84558000  0.66658000  0.77804000  1
  O  O1446  1  0.77804000  0.33342000  0.15442000  1
  O  O1447  1  0.84558000  0.22196000  0.33342000  1
  O  O1448  1  0.66658000  0.15442000  0.22196000  1
  O  O1449  1  0.77804000  0.15442000  0.33342000  1
  O  O1450  1  0.66658000  0.22196000  0.15442000  1
  O  O1451  1  0.84558000  0.33342000  0.22196000  1
  O  O1452  1  0.22196000  0.66658000  0.15442000  1
  O  O1453  1  0.15442000  0.77804000  0.33342000  1
  O  O1454  1  0.33342000  0.84558000  0.22196000  1
  O  O1455  1  0.22196000  0.84558000  0.33342000  1
  O  O1456  1  0.33342000  0.77804000  0.15442000  1
  O  O1457  1  0.15442000  0.66658000  0.22196000  1
  O  O1458  1  0.22196000  0.33342000  0.84558000  1
  O  O1459  1  0.15442000  0.22196000  0.66658000  1
  O  O1460  1  0.33342000  0.15442000  0.77804000  1
  O  O1461  1  0.22196000  0.15442000  0.66658000  1
  O  O1462  1  0.33342000  0.22196000  0.84558000  1
  O  O1463  1  0.15442000  0.33342000  0.77804000  1
  O  O1464  1  0.22196000  0.33342000  0.15442000  1
  O  O1465  1  0.15442000  0.22196000  0.33342000  1
  O  O1466  1  0.33342000  0.15442000  0.22196000  1
  O  O1467  1  0.22196000  0.15442000  0.33342000  1
  O  O1468  1  0.33342000  0.22196000  0.15442000  1
  O  O1469  1  0.15442000  0.33342000  0.22196000  1
  O  O1470  1  0.22196000  0.66658000  0.84558000  1
  O  O1471  1  0.15442000  0.77804000  0.66658000  1
  O  O1472  1  0.33342000  0.84558000  0.77804000  1
  O  O1473  1  0.22196000  0.84558000  0.66658000  1
  O  O1474  1  0.33342000  0.77804000  0.84558000  1
  O  O1475  1  0.15442000  0.66658000  0.77804000  1
  O  O1476  1  0.77804000  0.33342000  0.84558000  1
  O  O1477  1  0.84558000  0.22196000  0.66658000  1
  O  O1478  1  0.66658000  0.15442000  0.77804000  1
  O  O1479  1  0.77804000  0.15442000  0.66658000  1
  O  O1480  1  0.66658000  0.22196000  0.84558000  1
  O  O1481  1  0.84558000  0.33342000  0.77804000  1
  O  O1482  1  0.77804000  0.66658000  0.15442000  1
  O  O1483  1  0.84558000  0.77804000  0.33342000  1
  O  O1484  1  0.66658000  0.84558000  0.22196000  1
  O  O1485  1  0.77804000  0.84558000  0.33342000  1
  O  O1486  1  0.66658000  0.77804000  0.15442000  1
  O  O1487  1  0.84558000  0.66658000  0.22196000  1
  O  O1488  1  0.27804000  0.16658000  0.34558000  1
  O  O1489  1  0.34558000  0.27804000  0.16658000  1
  O  O1490  1  0.16658000  0.34558000  0.27804000  1
  O  O1491  1  0.27804000  0.34558000  0.16658000  1
  O  O1492  1  0.16658000  0.27804000  0.34558000  1
  O  O1493  1  0.34558000  0.16658000  0.27804000  1
  O  O1494  1  0.27804000  0.83342000  0.65442000  1
  O  O1495  1  0.34558000  0.72196000  0.83342000  1
  O  O1496  1  0.16658000  0.65442000  0.72196000  1
  O  O1497  1  0.27804000  0.65442000  0.83342000  1
  O  O1498  1  0.16658000  0.72196000  0.65442000  1
  O  O1499  1  0.34558000  0.83342000  0.72196000  1
  O  O1500  1  0.72196000  0.16658000  0.65442000  1
  O  O1501  1  0.65442000  0.27804000  0.83342000  1
  O  O1502  1  0.83342000  0.34558000  0.72196000  1
  O  O1503  1  0.72196000  0.34558000  0.83342000  1
  O  O1504  1  0.83342000  0.27804000  0.65442000  1
  O  O1505  1  0.65442000  0.16658000  0.72196000  1
  O  O1506  1  0.72196000  0.83342000  0.34558000  1
  O  O1507  1  0.65442000  0.72196000  0.16658000  1
  O  O1508  1  0.83342000  0.65442000  0.27804000  1
  O  O1509  1  0.72196000  0.65442000  0.16658000  1
  O  O1510  1  0.83342000  0.72196000  0.34558000  1
  O  O1511  1  0.65442000  0.83342000  0.27804000  1
  O  O1512  1  0.72196000  0.83342000  0.65442000  1
  O  O1513  1  0.65442000  0.72196000  0.83342000  1
  O  O1514  1  0.83342000  0.65442000  0.72196000  1
  O  O1515  1  0.72196000  0.65442000  0.83342000  1
  O  O1516  1  0.83342000  0.72196000  0.65442000  1
  O  O1517  1  0.65442000  0.83342000  0.72196000  1
  O  O1518  1  0.72196000  0.16658000  0.34558000  1
  O  O1519  1  0.65442000  0.27804000  0.16658000  1
  O  O1520  1  0.83342000  0.34558000  0.27804000  1
  O  O1521  1  0.72196000  0.34558000  0.16658000  1
  O  O1522  1  0.83342000  0.27804000  0.34558000  1
  O  O1523  1  0.65442000  0.16658000  0.27804000  1
  O  O1524  1  0.27804000  0.83342000  0.34558000  1
  O  O1525  1  0.34558000  0.72196000  0.16658000  1
  O  O1526  1  0.16658000  0.65442000  0.27804000  1
  O  O1527  1  0.27804000  0.65442000  0.16658000  1
  O  O1528  1  0.16658000  0.72196000  0.34558000  1
  O  O1529  1  0.34558000  0.83342000  0.27804000  1
  O  O1530  1  0.27804000  0.16658000  0.65442000  1
  O  O1531  1  0.34558000  0.27804000  0.83342000  1
  O  O1532  1  0.16658000  0.34558000  0.72196000  1
  O  O1533  1  0.27804000  0.34558000  0.83342000  1
  O  O1534  1  0.16658000  0.27804000  0.65442000  1
  O  O1535  1  0.34558000  0.16658000  0.72196000  1
  O  O1536  1  0.74124000  0.11125000  0.34909000  1
  O  O1537  1  0.34909000  0.74124000  0.11125000  1
  O  O1538  1  0.11125000  0.34909000  0.74124000  1
  O  O1539  1  0.74124000  0.34909000  0.11125000  1
  O  O1540  1  0.11125000  0.74124000  0.34909000  1
  O  O1541  1  0.34909000  0.11125000  0.74124000  1
  O  O1542  1  0.74124000  0.88875000  0.65091000  1
  O  O1543  1  0.34909000  0.25876000  0.88875000  1
  O  O1544  1  0.11125000  0.65091000  0.25876000  1
  O  O1545  1  0.74124000  0.65091000  0.88875000  1
  O  O1546  1  0.11125000  0.25876000  0.65091000  1
  O  O1547  1  0.34909000  0.88875000  0.25876000  1
  O  O1548  1  0.25876000  0.11125000  0.65091000  1
  O  O1549  1  0.65091000  0.74124000  0.88875000  1
  O  O1550  1  0.88875000  0.34909000  0.25876000  1
  O  O1551  1  0.25876000  0.34909000  0.88875000  1
  O  O1552  1  0.88875000  0.74124000  0.65091000  1
  O  O1553  1  0.65091000  0.11125000  0.25876000  1
  O  O1554  1  0.25876000  0.88875000  0.34909000  1
  O  O1555  1  0.65091000  0.25876000  0.11125000  1
  O  O1556  1  0.88875000  0.65091000  0.74124000  1
  O  O1557  1  0.25876000  0.65091000  0.11125000  1
  O  O1558  1  0.88875000  0.25876000  0.34909000  1
  O  O1559  1  0.65091000  0.88875000  0.74124000  1
  O  O1560  1  0.25876000  0.88875000  0.65091000  1
  O  O1561  1  0.65091000  0.25876000  0.88875000  1
  O  O1562  1  0.88875000  0.65091000  0.25876000  1
  O  O1563  1  0.25876000  0.65091000  0.88875000  1
  O  O1564  1  0.88875000  0.25876000  0.65091000  1
  O  O1565  1  0.65091000  0.88875000  0.25876000  1
  O  O1566  1  0.25876000  0.11125000  0.34909000  1
  O  O1567  1  0.65091000  0.74124000  0.11125000  1
  O  O1568  1  0.88875000  0.34909000  0.74124000  1
  O  O1569  1  0.25876000  0.34909000  0.11125000  1
  O  O1570  1  0.88875000  0.74124000  0.34909000  1
  O  O1571  1  0.65091000  0.11125000  0.74124000  1
  O  O1572  1  0.74124000  0.88875000  0.34909000  1
  O  O1573  1  0.34909000  0.25876000  0.11125000  1
  O  O1574  1  0.11125000  0.65091000  0.74124000  1
  O  O1575  1  0.74124000  0.65091000  0.11125000  1
  O  O1576  1  0.11125000  0.25876000  0.34909000  1
  O  O1577  1  0.34909000  0.88875000  0.74124000  1
  O  O1578  1  0.74124000  0.11125000  0.65091000  1
  O  O1579  1  0.34909000  0.74124000  0.88875000  1
  O  O1580  1  0.11125000  0.34909000  0.25876000  1
  O  O1581  1  0.74124000  0.34909000  0.88875000  1
  O  O1582  1  0.11125000  0.74124000  0.65091000  1
  O  O1583  1  0.34909000  0.11125000  0.25876000  1
  O  O1584  1  0.24124000  0.61125000  0.84909000  1
  O  O1585  1  0.84909000  0.24124000  0.61125000  1
  O  O1586  1  0.61125000  0.84909000  0.24124000  1
  O  O1587  1  0.24124000  0.84909000  0.61125000  1
  O  O1588  1  0.61125000  0.24124000  0.84909000  1
  O  O1589  1  0.84909000  0.61125000  0.24124000  1
  O  O1590  1  0.24124000  0.38875000  0.15091000  1
  O  O1591  1  0.84909000  0.75876000  0.38875000  1
  O  O1592  1  0.61125000  0.15091000  0.75876000  1
  O  O1593  1  0.24124000  0.15091000  0.38875000  1
  O  O1594  1  0.61125000  0.75876000  0.15091000  1
  O  O1595  1  0.84909000  0.38875000  0.75876000  1
  O  O1596  1  0.75876000  0.61125000  0.15091000  1
  O  O1597  1  0.15091000  0.24124000  0.38875000  1
  O  O1598  1  0.38875000  0.84909000  0.75876000  1
  O  O1599  1  0.75876000  0.84909000  0.38875000  1
  O  O1600  1  0.38875000  0.24124000  0.15091000  1
  O  O1601  1  0.15091000  0.61125000  0.75876000  1
  O  O1602  1  0.75876000  0.38875000  0.84909000  1
  O  O1603  1  0.15091000  0.75876000  0.61125000  1
  O  O1604  1  0.38875000  0.15091000  0.24124000  1
  O  O1605  1  0.75876000  0.15091000  0.61125000  1
  O  O1606  1  0.38875000  0.75876000  0.84909000  1
  O  O1607  1  0.15091000  0.38875000  0.24124000  1
  O  O1608  1  0.75876000  0.38875000  0.15091000  1
  O  O1609  1  0.15091000  0.75876000  0.38875000  1
  O  O1610  1  0.38875000  0.15091000  0.75876000  1
  O  O1611  1  0.75876000  0.15091000  0.38875000  1
  O  O1612  1  0.38875000  0.75876000  0.15091000  1
  O  O1613  1  0.15091000  0.38875000  0.75876000  1
  O  O1614  1  0.75876000  0.61125000  0.84909000  1
  O  O1615  1  0.15091000  0.24124000  0.61125000  1
  O  O1616  1  0.38875000  0.84909000  0.24124000  1
  O  O1617  1  0.75876000  0.84909000  0.61125000  1
  O  O1618  1  0.38875000  0.24124000  0.84909000  1
  O  O1619  1  0.15091000  0.61125000  0.24124000  1
  O  O1620  1  0.24124000  0.38875000  0.84909000  1
  O  O1621  1  0.84909000  0.75876000  0.61125000  1
  O  O1622  1  0.61125000  0.15091000  0.24124000  1
  O  O1623  1  0.24124000  0.15091000  0.61125000  1
  O  O1624  1  0.61125000  0.75876000  0.84909000  1
  O  O1625  1  0.84909000  0.38875000  0.24124000  1
  O  O1626  1  0.24124000  0.61125000  0.15091000  1
  O  O1627  1  0.84909000  0.24124000  0.38875000  1
  O  O1628  1  0.61125000  0.84909000  0.75876000  1
  O  O1629  1  0.24124000  0.84909000  0.38875000  1
  O  O1630  1  0.61125000  0.24124000  0.15091000  1
  O  O1631  1  0.84909000  0.61125000  0.75876000  1
  O  O1632  1  0.61122000  0.07126000  0.24193000  1
  O  O1633  1  0.24193000  0.61122000  0.07126000  1
  O  O1634  1  0.07126000  0.24193000  0.61122000  1
  O  O1635  1  0.61122000  0.24193000  0.07126000  1
  O  O1636  1  0.07126000  0.61122000  0.24193000  1
  O  O1637  1  0.24193000  0.07126000  0.61122000  1
  O  O1638  1  0.61122000  0.92874000  0.75807000  1
  O  O1639  1  0.24193000  0.38878000  0.92874000  1
  O  O1640  1  0.07126000  0.75807000  0.38878000  1
  O  O1641  1  0.61122000  0.75807000  0.92874000  1
  O  O1642  1  0.07126000  0.38878000  0.75807000  1
  O  O1643  1  0.24193000  0.92874000  0.38878000  1
  O  O1644  1  0.38878000  0.07126000  0.75807000  1
  O  O1645  1  0.75807000  0.61122000  0.92874000  1
  O  O1646  1  0.92874000  0.24193000  0.38878000  1
  O  O1647  1  0.38878000  0.24193000  0.92874000  1
  O  O1648  1  0.92874000  0.61122000  0.75807000  1
  O  O1649  1  0.75807000  0.07126000  0.38878000  1
  O  O1650  1  0.38878000  0.92874000  0.24193000  1
  O  O1651  1  0.75807000  0.38878000  0.07126000  1
  O  O1652  1  0.92874000  0.75807000  0.61122000  1
  O  O1653  1  0.38878000  0.75807000  0.07126000  1
  O  O1654  1  0.92874000  0.38878000  0.24193000  1
  O  O1655  1  0.75807000  0.92874000  0.61122000  1
  O  O1656  1  0.38878000  0.92874000  0.75807000  1
  O  O1657  1  0.75807000  0.38878000  0.92874000  1
  O  O1658  1  0.92874000  0.75807000  0.38878000  1
  O  O1659  1  0.38878000  0.75807000  0.92874000  1
  O  O1660  1  0.92874000  0.38878000  0.75807000  1
  O  O1661  1  0.75807000  0.92874000  0.38878000  1
  O  O1662  1  0.38878000  0.07126000  0.24193000  1
  O  O1663  1  0.75807000  0.61122000  0.07126000  1
  O  O1664  1  0.92874000  0.24193000  0.61122000  1
  O  O1665  1  0.38878000  0.24193000  0.07126000  1
  O  O1666  1  0.92874000  0.61122000  0.24193000  1
  O  O1667  1  0.75807000  0.07126000  0.61122000  1
  O  O1668  1  0.61122000  0.92874000  0.24193000  1
  O  O1669  1  0.24193000  0.38878000  0.07126000  1
  O  O1670  1  0.07126000  0.75807000  0.61122000  1
  O  O1671  1  0.61122000  0.75807000  0.07126000  1
  O  O1672  1  0.07126000  0.38878000  0.24193000  1
  O  O1673  1  0.24193000  0.92874000  0.61122000  1
  O  O1674  1  0.61122000  0.07126000  0.75807000  1
  O  O1675  1  0.24193000  0.61122000  0.92874000  1
  O  O1676  1  0.07126000  0.24193000  0.38878000  1
  O  O1677  1  0.61122000  0.24193000  0.92874000  1
  O  O1678  1  0.07126000  0.61122000  0.75807000  1
  O  O1679  1  0.24193000  0.07126000  0.38878000  1
  O  O1680  1  0.11122000  0.57126000  0.74193000  1
  O  O1681  1  0.74193000  0.11122000  0.57126000  1
  O  O1682  1  0.57126000  0.74193000  0.11122000  1
  O  O1683  1  0.11122000  0.74193000  0.57126000  1
  O  O1684  1  0.57126000  0.11122000  0.74193000  1
  O  O1685  1  0.74193000  0.57126000  0.11122000  1
  O  O1686  1  0.11122000  0.42874000  0.25807000  1
  O  O1687  1  0.74193000  0.88878000  0.42874000  1
  O  O1688  1  0.57126000  0.25807000  0.88878000  1
  O  O1689  1  0.11122000  0.25807000  0.42874000  1
  O  O1690  1  0.57126000  0.88878000  0.25807000  1
  O  O1691  1  0.74193000  0.42874000  0.88878000  1
  O  O1692  1  0.88878000  0.57126000  0.25807000  1
  O  O1693  1  0.25807000  0.11122000  0.42874000  1
  O  O1694  1  0.42874000  0.74193000  0.88878000  1
  O  O1695  1  0.88878000  0.74193000  0.42874000  1
  O  O1696  1  0.42874000  0.11122000  0.25807000  1
  O  O1697  1  0.25807000  0.57126000  0.88878000  1
  O  O1698  1  0.88878000  0.42874000  0.74193000  1
  O  O1699  1  0.25807000  0.88878000  0.57126000  1
  O  O1700  1  0.42874000  0.25807000  0.11122000  1
  O  O1701  1  0.88878000  0.25807000  0.57126000  1
  O  O1702  1  0.42874000  0.88878000  0.74193000  1
  O  O1703  1  0.25807000  0.42874000  0.11122000  1
  O  O1704  1  0.88878000  0.42874000  0.25807000  1
  O  O1705  1  0.25807000  0.88878000  0.42874000  1
  O  O1706  1  0.42874000  0.25807000  0.88878000  1
  O  O1707  1  0.88878000  0.25807000  0.42874000  1
  O  O1708  1  0.42874000  0.88878000  0.25807000  1
  O  O1709  1  0.25807000  0.42874000  0.88878000  1
  O  O1710  1  0.88878000  0.57126000  0.74193000  1
  O  O1711  1  0.25807000  0.11122000  0.57126000  1
  O  O1712  1  0.42874000  0.74193000  0.11122000  1
  O  O1713  1  0.88878000  0.74193000  0.57126000  1
  O  O1714  1  0.42874000  0.11122000  0.74193000  1
  O  O1715  1  0.25807000  0.57126000  0.11122000  1
  O  O1716  1  0.11122000  0.42874000  0.74193000  1
  O  O1717  1  0.74193000  0.88878000  0.57126000  1
  O  O1718  1  0.57126000  0.25807000  0.11122000  1
  O  O1719  1  0.11122000  0.25807000  0.57126000  1
  O  O1720  1  0.57126000  0.88878000  0.74193000  1
  O  O1721  1  0.74193000  0.42874000  0.11122000  1
  O  O1722  1  0.11122000  0.57126000  0.25807000  1
  O  O1723  1  0.74193000  0.11122000  0.42874000  1
  O  O1724  1  0.57126000  0.74193000  0.88878000  1
  O  O1725  1  0.11122000  0.74193000  0.42874000  1
  O  O1726  1  0.57126000  0.11122000  0.25807000  1
  O  O1727  1  0.74193000  0.57126000  0.88878000  1
  O  O1728  1  0.88957000  0.53916000  0.18570000  1
  O  O1729  1  0.18570000  0.88957000  0.53916000  1
  O  O1730  1  0.53916000  0.18570000  0.88957000  1
  O  O1731  1  0.88957000  0.18570000  0.53916000  1
  O  O1732  1  0.53916000  0.88957000  0.18570000  1
  O  O1733  1  0.18570000  0.53916000  0.88957000  1
  O  O1734  1  0.88957000  0.46084000  0.81430000  1
  O  O1735  1  0.18570000  0.11043000  0.46084000  1
  O  O1736  1  0.53916000  0.81430000  0.11043000  1
  O  O1737  1  0.88957000  0.81430000  0.46084000  1
  O  O1738  1  0.53916000  0.11043000  0.81430000  1
  O  O1739  1  0.18570000  0.46084000  0.11043000  1
  O  O1740  1  0.11043000  0.53916000  0.81430000  1
  O  O1741  1  0.81430000  0.88957000  0.46084000  1
  O  O1742  1  0.46084000  0.18570000  0.11043000  1
  O  O1743  1  0.11043000  0.18570000  0.46084000  1
  O  O1744  1  0.46084000  0.88957000  0.81430000  1
  O  O1745  1  0.81430000  0.53916000  0.11043000  1
  O  O1746  1  0.11043000  0.46084000  0.18570000  1
  O  O1747  1  0.81430000  0.11043000  0.53916000  1
  O  O1748  1  0.46084000  0.81430000  0.88957000  1
  O  O1749  1  0.11043000  0.81430000  0.53916000  1
  O  O1750  1  0.46084000  0.11043000  0.18570000  1
  O  O1751  1  0.81430000  0.46084000  0.88957000  1
  O  O1752  1  0.11043000  0.46084000  0.81430000  1
  O  O1753  1  0.81430000  0.11043000  0.46084000  1
  O  O1754  1  0.46084000  0.81430000  0.11043000  1
  O  O1755  1  0.11043000  0.81430000  0.46084000  1
  O  O1756  1  0.46084000  0.11043000  0.81430000  1
  O  O1757  1  0.81430000  0.46084000  0.11043000  1
  O  O1758  1  0.11043000  0.53916000  0.18570000  1
  O  O1759  1  0.81430000  0.88957000  0.53916000  1
  O  O1760  1  0.46084000  0.18570000  0.88957000  1
  O  O1761  1  0.11043000  0.18570000  0.53916000  1
  O  O1762  1  0.46084000  0.88957000  0.18570000  1
  O  O1763  1  0.81430000  0.53916000  0.88957000  1
  O  O1764  1  0.88957000  0.46084000  0.18570000  1
  O  O1765  1  0.18570000  0.11043000  0.53916000  1
  O  O1766  1  0.53916000  0.81430000  0.88957000  1
  O  O1767  1  0.88957000  0.81430000  0.53916000  1
  O  O1768  1  0.53916000  0.11043000  0.18570000  1
  O  O1769  1  0.18570000  0.46084000  0.88957000  1
  O  O1770  1  0.88957000  0.53916000  0.81430000  1
  O  O1771  1  0.18570000  0.88957000  0.46084000  1
  O  O1772  1  0.53916000  0.18570000  0.11043000  1
  O  O1773  1  0.88957000  0.18570000  0.46084000  1
  O  O1774  1  0.53916000  0.88957000  0.81430000  1
  O  O1775  1  0.18570000  0.53916000  0.11043000  1
  O  O1776  1  0.38957000  0.03916000  0.68570000  1
  O  O1777  1  0.68570000  0.38957000  0.03916000  1
  O  O1778  1  0.03916000  0.68570000  0.38957000  1
  O  O1779  1  0.38957000  0.68570000  0.03916000  1
  O  O1780  1  0.03916000  0.38957000  0.68570000  1
  O  O1781  1  0.68570000  0.03916000  0.38957000  1
  O  O1782  1  0.38957000  0.96084000  0.31430000  1
  O  O1783  1  0.68570000  0.61043000  0.96084000  1
  O  O1784  1  0.03916000  0.31430000  0.61043000  1
  O  O1785  1  0.38957000  0.31430000  0.96084000  1
  O  O1786  1  0.03916000  0.61043000  0.31430000  1
  O  O1787  1  0.68570000  0.96084000  0.61043000  1
  O  O1788  1  0.61043000  0.03916000  0.31430000  1
  O  O1789  1  0.31430000  0.38957000  0.96084000  1
  O  O1790  1  0.96084000  0.68570000  0.61043000  1
  O  O1791  1  0.61043000  0.68570000  0.96084000  1
  O  O1792  1  0.96084000  0.38957000  0.31430000  1
  O  O1793  1  0.31430000  0.03916000  0.61043000  1
  O  O1794  1  0.61043000  0.96084000  0.68570000  1
  O  O1795  1  0.31430000  0.61043000  0.03916000  1
  O  O1796  1  0.96084000  0.31430000  0.38957000  1
  O  O1797  1  0.61043000  0.31430000  0.03916000  1
  O  O1798  1  0.96084000  0.61043000  0.68570000  1
  O  O1799  1  0.31430000  0.96084000  0.38957000  1
  O  O1800  1  0.61043000  0.96084000  0.31430000  1
  O  O1801  1  0.31430000  0.61043000  0.96084000  1
  O  O1802  1  0.96084000  0.31430000  0.61043000  1
  O  O1803  1  0.61043000  0.31430000  0.96084000  1
  O  O1804  1  0.96084000  0.61043000  0.31430000  1
  O  O1805  1  0.31430000  0.96084000  0.61043000  1
  O  O1806  1  0.61043000  0.03916000  0.68570000  1
  O  O1807  1  0.31430000  0.38957000  0.03916000  1
  O  O1808  1  0.96084000  0.68570000  0.38957000  1
  O  O1809  1  0.61043000  0.68570000  0.03916000  1
  O  O1810  1  0.96084000  0.38957000  0.68570000  1
  O  O1811  1  0.31430000  0.03916000  0.38957000  1
  O  O1812  1  0.38957000  0.96084000  0.68570000  1
  O  O1813  1  0.68570000  0.61043000  0.03916000  1
  O  O1814  1  0.03916000  0.31430000  0.38957000  1
  O  O1815  1  0.38957000  0.31430000  0.03916000  1
  O  O1816  1  0.03916000  0.61043000  0.68570000  1
  O  O1817  1  0.68570000  0.96084000  0.38957000  1
  O  O1818  1  0.38957000  0.03916000  0.31430000  1
  O  O1819  1  0.68570000  0.38957000  0.96084000  1
  O  O1820  1  0.03916000  0.68570000  0.61043000  1
  O  O1821  1  0.38957000  0.68570000  0.96084000  1
  O  O1822  1  0.03916000  0.38957000  0.31430000  1
  O  O1823  1  0.68570000  0.03916000  0.61043000  1
  O  O1824  1  0.34572000  0.27894000  0.05611000  1
  O  O1825  1  0.05611000  0.34572000  0.27894000  1
  O  O1826  1  0.27894000  0.05611000  0.34572000  1
  O  O1827  1  0.34572000  0.05611000  0.27894000  1
  O  O1828  1  0.27894000  0.34572000  0.05611000  1
  O  O1829  1  0.05611000  0.27894000  0.34572000  1
  O  O1830  1  0.34572000  0.72106000  0.94389000  1
  O  O1831  1  0.05611000  0.65428000  0.72106000  1
  O  O1832  1  0.27894000  0.94389000  0.65428000  1
  O  O1833  1  0.34572000  0.94389000  0.72106000  1
  O  O1834  1  0.27894000  0.65428000  0.94389000  1
  O  O1835  1  0.05611000  0.72106000  0.65428000  1
  O  O1836  1  0.65428000  0.27894000  0.94389000  1
  O  O1837  1  0.94389000  0.34572000  0.72106000  1
  O  O1838  1  0.72106000  0.05611000  0.65428000  1
  O  O1839  1  0.65428000  0.05611000  0.72106000  1
  O  O1840  1  0.72106000  0.34572000  0.94389000  1
  O  O1841  1  0.94389000  0.27894000  0.65428000  1
  O  O1842  1  0.65428000  0.72106000  0.05611000  1
  O  O1843  1  0.94389000  0.65428000  0.27894000  1
  O  O1844  1  0.72106000  0.94389000  0.34572000  1
  O  O1845  1  0.65428000  0.94389000  0.27894000  1
  O  O1846  1  0.72106000  0.65428000  0.05611000  1
  O  O1847  1  0.94389000  0.72106000  0.34572000  1
  O  O1848  1  0.65428000  0.72106000  0.94389000  1
  O  O1849  1  0.94389000  0.65428000  0.72106000  1
  O  O1850  1  0.72106000  0.94389000  0.65428000  1
  O  O1851  1  0.65428000  0.94389000  0.72106000  1
  O  O1852  1  0.72106000  0.65428000  0.94389000  1
  O  O1853  1  0.94389000  0.72106000  0.65428000  1
  O  O1854  1  0.65428000  0.27894000  0.05611000  1
  O  O1855  1  0.94389000  0.34572000  0.27894000  1
  O  O1856  1  0.72106000  0.05611000  0.34572000  1
  O  O1857  1  0.65428000  0.05611000  0.27894000  1
  O  O1858  1  0.72106000  0.34572000  0.05611000  1
  O  O1859  1  0.94389000  0.27894000  0.34572000  1
  O  O1860  1  0.34572000  0.72106000  0.05611000  1
  O  O1861  1  0.05611000  0.65428000  0.27894000  1
  O  O1862  1  0.27894000  0.94389000  0.34572000  1
  O  O1863  1  0.34572000  0.94389000  0.27894000  1
  O  O1864  1  0.27894000  0.65428000  0.05611000  1
  O  O1865  1  0.05611000  0.72106000  0.34572000  1
  O  O1866  1  0.34572000  0.27894000  0.94389000  1
  O  O1867  1  0.05611000  0.34572000  0.72106000  1
  O  O1868  1  0.27894000  0.05611000  0.65428000  1
  O  O1869  1  0.34572000  0.05611000  0.72106000  1
  O  O1870  1  0.27894000  0.34572000  0.94389000  1
  O  O1871  1  0.05611000  0.27894000  0.65428000  1
  O  O1872  1  0.84572000  0.77894000  0.55611000  1
  O  O1873  1  0.55611000  0.84572000  0.77894000  1
  O  O1874  1  0.77894000  0.55611000  0.84572000  1
  O  O1875  1  0.84572000  0.55611000  0.77894000  1
  O  O1876  1  0.77894000  0.84572000  0.55611000  1
  O  O1877  1  0.55611000  0.77894000  0.84572000  1
  O  O1878  1  0.84572000  0.22106000  0.44389000  1
  O  O1879  1  0.55611000  0.15428000  0.22106000  1
  O  O1880  1  0.77894000  0.44389000  0.15428000  1
  O  O1881  1  0.84572000  0.44389000  0.22106000  1
  O  O1882  1  0.77894000  0.15428000  0.44389000  1
  O  O1883  1  0.55611000  0.22106000  0.15428000  1
  O  O1884  1  0.15428000  0.77894000  0.44389000  1
  O  O1885  1  0.44389000  0.84572000  0.22106000  1
  O  O1886  1  0.22106000  0.55611000  0.15428000  1
  O  O1887  1  0.15428000  0.55611000  0.22106000  1
  O  O1888  1  0.22106000  0.84572000  0.44389000  1
  O  O1889  1  0.44389000  0.77894000  0.15428000  1
  O  O1890  1  0.15428000  0.22106000  0.55611000  1
  O  O1891  1  0.44389000  0.15428000  0.77894000  1
  O  O1892  1  0.22106000  0.44389000  0.84572000  1
  O  O1893  1  0.15428000  0.44389000  0.77894000  1
  O  O1894  1  0.22106000  0.15428000  0.55611000  1
  O  O1895  1  0.44389000  0.22106000  0.84572000  1
  O  O1896  1  0.15428000  0.22106000  0.44389000  1
  O  O1897  1  0.44389000  0.15428000  0.22106000  1
  O  O1898  1  0.22106000  0.44389000  0.15428000  1
  O  O1899  1  0.15428000  0.44389000  0.22106000  1
  O  O1900  1  0.22106000  0.15428000  0.44389000  1
  O  O1901  1  0.44389000  0.22106000  0.15428000  1
  O  O1902  1  0.15428000  0.77894000  0.55611000  1
  O  O1903  1  0.44389000  0.84572000  0.77894000  1
  O  O1904  1  0.22106000  0.55611000  0.84572000  1
  O  O1905  1  0.15428000  0.55611000  0.77894000  1
  O  O1906  1  0.22106000  0.84572000  0.55611000  1
  O  O1907  1  0.44389000  0.77894000  0.84572000  1
  O  O1908  1  0.84572000  0.22106000  0.55611000  1
  O  O1909  1  0.55611000  0.15428000  0.77894000  1
  O  O1910  1  0.77894000  0.44389000  0.84572000  1
  O  O1911  1  0.84572000  0.44389000  0.77894000  1
  O  O1912  1  0.77894000  0.15428000  0.55611000  1
  O  O1913  1  0.55611000  0.22106000  0.84572000  1
  O  O1914  1  0.84572000  0.77894000  0.44389000  1
  O  O1915  1  0.55611000  0.84572000  0.22106000  1
  O  O1916  1  0.77894000  0.55611000  0.15428000  1
  O  O1917  1  0.84572000  0.55611000  0.22106000  1
  O  O1918  1  0.77894000  0.84572000  0.44389000  1
  O  O1919  1  0.55611000  0.77894000  0.15428000  1
  O  O1920  1  0.81847000  0.35327000  0.50000000  1
  O  O1921  1  0.50000000  0.81847000  0.35327000  1
  O  O1922  1  0.35327000  0.50000000  0.81847000  1
  O  O1923  1  0.81847000  0.50000000  0.35327000  1
  O  O1924  1  0.35327000  0.81847000  0.50000000  1
  O  O1925  1  0.50000000  0.35327000  0.81847000  1
  O  O1926  1  0.81847000  0.64673000  0.50000000  1
  O  O1927  1  0.50000000  0.18153000  0.64673000  1
  O  O1928  1  0.35327000  0.50000000  0.18153000  1
  O  O1929  1  0.81847000  0.50000000  0.64673000  1
  O  O1930  1  0.35327000  0.18153000  0.50000000  1
  O  O1931  1  0.50000000  0.64673000  0.18153000  1
  O  O1932  1  0.18153000  0.35327000  0.50000000  1
  O  O1933  1  0.50000000  0.81847000  0.64673000  1
  O  O1934  1  0.64673000  0.50000000  0.18153000  1
  O  O1935  1  0.18153000  0.50000000  0.64673000  1
  O  O1936  1  0.64673000  0.81847000  0.50000000  1
  O  O1937  1  0.50000000  0.35327000  0.18153000  1
  O  O1938  1  0.18153000  0.64673000  0.50000000  1
  O  O1939  1  0.50000000  0.18153000  0.35327000  1
  O  O1940  1  0.64673000  0.50000000  0.81847000  1
  O  O1941  1  0.18153000  0.50000000  0.35327000  1
  O  O1942  1  0.64673000  0.18153000  0.50000000  1
  O  O1943  1  0.50000000  0.64673000  0.81847000  1
  O  O1944  1  0.31847000  0.85327000  0.00000000  1
  O  O1945  1  0.00000000  0.31847000  0.85327000  1
  O  O1946  1  0.85327000  0.00000000  0.31847000  1
  O  O1947  1  0.31847000  0.00000000  0.85327000  1
  O  O1948  1  0.85327000  0.31847000  0.00000000  1
  O  O1949  1  0.00000000  0.85327000  0.31847000  1
  O  O1950  1  0.31847000  0.14673000  0.00000000  1
  O  O1951  1  0.00000000  0.68153000  0.14673000  1
  O  O1952  1  0.85327000  0.00000000  0.68153000  1
  O  O1953  1  0.31847000  0.00000000  0.14673000  1
  O  O1954  1  0.85327000  0.68153000  0.00000000  1
  O  O1955  1  0.00000000  0.14673000  0.68153000  1
  O  O1956  1  0.68153000  0.85327000  0.00000000  1
  O  O1957  1  0.00000000  0.31847000  0.14673000  1
  O  O1958  1  0.14673000  0.00000000  0.68153000  1
  O  O1959  1  0.68153000  0.00000000  0.14673000  1
  O  O1960  1  0.14673000  0.31847000  0.00000000  1
  O  O1961  1  0.00000000  0.85327000  0.68153000  1
  O  O1962  1  0.68153000  0.14673000  0.00000000  1
  O  O1963  1  0.00000000  0.68153000  0.85327000  1
  O  O1964  1  0.14673000  0.00000000  0.31847000  1
  O  O1965  1  0.68153000  0.00000000  0.85327000  1
  O  O1966  1  0.14673000  0.68153000  0.00000000  1
  O  O1967  1  0.00000000  0.14673000  0.31847000  1
  O  O1968  1  0.92920000  0.79553000  0.50000000  1
  O  O1969  1  0.50000000  0.92920000  0.79553000  1
  O  O1970  1  0.79553000  0.50000000  0.92920000  1
  O  O1971  1  0.92920000  0.50000000  0.79553000  1
  O  O1972  1  0.79553000  0.92920000  0.50000000  1
  O  O1973  1  0.50000000  0.79553000  0.92920000  1
  O  O1974  1  0.92920000  0.20447000  0.50000000  1
  O  O1975  1  0.50000000  0.07080000  0.20447000  1
  O  O1976  1  0.79553000  0.50000000  0.07080000  1
  O  O1977  1  0.92920000  0.50000000  0.20447000  1
  O  O1978  1  0.79553000  0.07080000  0.50000000  1
  O  O1979  1  0.50000000  0.20447000  0.07080000  1
  O  O1980  1  0.07080000  0.79553000  0.50000000  1
  O  O1981  1  0.50000000  0.92920000  0.20447000  1
  O  O1982  1  0.20447000  0.50000000  0.07080000  1
  O  O1983  1  0.07080000  0.50000000  0.20447000  1
  O  O1984  1  0.20447000  0.92920000  0.50000000  1
  O  O1985  1  0.50000000  0.79553000  0.07080000  1
  O  O1986  1  0.07080000  0.20447000  0.50000000  1
  O  O1987  1  0.50000000  0.07080000  0.79553000  1
  O  O1988  1  0.20447000  0.50000000  0.92920000  1
  O  O1989  1  0.07080000  0.50000000  0.79553000  1
  O  O1990  1  0.20447000  0.07080000  0.50000000  1
  O  O1991  1  0.50000000  0.20447000  0.92920000  1
  O  O1992  1  0.42920000  0.29553000  0.00000000  1
  O  O1993  1  0.00000000  0.42920000  0.29553000  1
  O  O1994  1  0.29553000  0.00000000  0.42920000  1
  O  O1995  1  0.42920000  0.00000000  0.29553000  1
  O  O1996  1  0.29553000  0.42920000  0.00000000  1
  O  O1997  1  0.00000000  0.29553000  0.42920000  1
  O  O1998  1  0.42920000  0.70447000  0.00000000  1
  O  O1999  1  0.00000000  0.57080000  0.70447000  1
  O  O2000  1  0.29553000  0.00000000  0.57080000  1
  O  O2001  1  0.42920000  0.00000000  0.70447000  1
  O  O2002  1  0.29553000  0.57080000  0.00000000  1
  O  O2003  1  0.00000000  0.70447000  0.57080000  1
  O  O2004  1  0.57080000  0.29553000  0.00000000  1
  O  O2005  1  0.00000000  0.42920000  0.70447000  1
  O  O2006  1  0.70447000  0.00000000  0.57080000  1
  O  O2007  1  0.57080000  0.00000000  0.70447000  1
  O  O2008  1  0.70447000  0.42920000  0.00000000  1
  O  O2009  1  0.00000000  0.29553000  0.57080000  1
  O  O2010  1  0.57080000  0.70447000  0.00000000  1
  O  O2011  1  0.00000000  0.57080000  0.29553000  1
  O  O2012  1  0.70447000  0.00000000  0.42920000  1
  O  O2013  1  0.57080000  0.00000000  0.29553000  1
  O  O2014  1  0.70447000  0.57080000  0.00000000  1
  O  O2015  1  0.00000000  0.70447000  0.42920000  1
  O  O2016  1  0.57164000  0.07580000  0.00000000  1
  O  O2017  1  0.00000000  0.57164000  0.07580000  1
  O  O2018  1  0.07580000  0.00000000  0.57164000  1
  O  O2019  1  0.57164000  0.00000000  0.07580000  1
  O  O2020  1  0.07580000  0.57164000  0.00000000  1
  O  O2021  1  0.00000000  0.07580000  0.57164000  1
  O  O2022  1  0.57164000  0.92420000  0.00000000  1
  O  O2023  1  0.00000000  0.42836000  0.92420000  1
  O  O2024  1  0.07580000  0.00000000  0.42836000  1
  O  O2025  1  0.57164000  0.00000000  0.92420000  1
  O  O2026  1  0.07580000  0.42836000  0.00000000  1
  O  O2027  1  0.00000000  0.92420000  0.42836000  1
  O  O2028  1  0.42836000  0.07580000  0.00000000  1
  O  O2029  1  0.00000000  0.57164000  0.92420000  1
  O  O2030  1  0.92420000  0.00000000  0.42836000  1
  O  O2031  1  0.42836000  0.00000000  0.92420000  1
  O  O2032  1  0.92420000  0.57164000  0.00000000  1
  O  O2033  1  0.00000000  0.07580000  0.42836000  1
  O  O2034  1  0.42836000  0.92420000  0.00000000  1
  O  O2035  1  0.00000000  0.42836000  0.07580000  1
  O  O2036  1  0.92420000  0.00000000  0.57164000  1
  O  O2037  1  0.42836000  0.00000000  0.07580000  1
  O  O2038  1  0.92420000  0.42836000  0.00000000  1
  O  O2039  1  0.00000000  0.92420000  0.57164000  1
  O  O2040  1  0.07164000  0.57580000  0.50000000  1
  O  O2041  1  0.50000000  0.07164000  0.57580000  1
  O  O2042  1  0.57580000  0.50000000  0.07164000  1
  O  O2043  1  0.07164000  0.50000000  0.57580000  1
  O  O2044  1  0.57580000  0.07164000  0.50000000  1
  O  O2045  1  0.50000000  0.57580000  0.07164000  1
  O  O2046  1  0.07164000  0.42420000  0.50000000  1
  O  O2047  1  0.50000000  0.92836000  0.42420000  1
  O  O2048  1  0.57580000  0.50000000  0.92836000  1
  O  O2049  1  0.07164000  0.50000000  0.42420000  1
  O  O2050  1  0.57580000  0.92836000  0.50000000  1
  O  O2051  1  0.50000000  0.42420000  0.92836000  1
  O  O2052  1  0.92836000  0.57580000  0.50000000  1
  O  O2053  1  0.50000000  0.07164000  0.42420000  1
  O  O2054  1  0.42420000  0.50000000  0.92836000  1
  O  O2055  1  0.92836000  0.50000000  0.42420000  1
  O  O2056  1  0.42420000  0.07164000  0.50000000  1
  O  O2057  1  0.50000000  0.57580000  0.92836000  1
  O  O2058  1  0.92836000  0.42420000  0.50000000  1
  O  O2059  1  0.50000000  0.92836000  0.57580000  1
  O  O2060  1  0.42420000  0.50000000  0.07164000  1
  O  O2061  1  0.92836000  0.50000000  0.57580000  1
  O  O2062  1  0.42420000  0.92836000  0.50000000  1
  O  O2063  1  0.50000000  0.42420000  0.07164000  1
  O  O2064  1  0.54076000  0.14581000  0.00000000  1
  O  O2065  1  0.00000000  0.54076000  0.14581000  1
  O  O2066  1  0.14581000  0.00000000  0.54076000  1
  O  O2067  1  0.54076000  0.00000000  0.14581000  1
  O  O2068  1  0.14581000  0.54076000  0.00000000  1
  O  O2069  1  0.00000000  0.14581000  0.54076000  1
  O  O2070  1  0.54076000  0.85419000  0.00000000  1
  O  O2071  1  0.00000000  0.45924000  0.85419000  1
  O  O2072  1  0.14581000  0.00000000  0.45924000  1
  O  O2073  1  0.54076000  0.00000000  0.85419000  1
  O  O2074  1  0.14581000  0.45924000  0.00000000  1
  O  O2075  1  0.00000000  0.85419000  0.45924000  1
  O  O2076  1  0.45924000  0.14581000  0.00000000  1
  O  O2077  1  0.00000000  0.54076000  0.85419000  1
  O  O2078  1  0.85419000  0.00000000  0.45924000  1
  O  O2079  1  0.45924000  0.00000000  0.85419000  1
  O  O2080  1  0.85419000  0.54076000  0.00000000  1
  O  O2081  1  0.00000000  0.14581000  0.45924000  1
  O  O2082  1  0.45924000  0.85419000  0.00000000  1
  O  O2083  1  0.00000000  0.45924000  0.14581000  1
  O  O2084  1  0.85419000  0.00000000  0.54076000  1
  O  O2085  1  0.45924000  0.00000000  0.14581000  1
  O  O2086  1  0.85419000  0.45924000  0.00000000  1
  O  O2087  1  0.00000000  0.85419000  0.54076000  1
  O  O2088  1  0.04076000  0.64581000  0.50000000  1
  O  O2089  1  0.50000000  0.04076000  0.64581000  1
  O  O2090  1  0.64581000  0.50000000  0.04076000  1
  O  O2091  1  0.04076000  0.50000000  0.64581000  1
  O  O2092  1  0.64581000  0.04076000  0.50000000  1
  O  O2093  1  0.50000000  0.64581000  0.04076000  1
  O  O2094  1  0.04076000  0.35419000  0.50000000  1
  O  O2095  1  0.50000000  0.95924000  0.35419000  1
  O  O2096  1  0.64581000  0.50000000  0.95924000  1
  O  O2097  1  0.04076000  0.50000000  0.35419000  1
  O  O2098  1  0.64581000  0.95924000  0.50000000  1
  O  O2099  1  0.50000000  0.35419000  0.95924000  1
  O  O2100  1  0.95924000  0.64581000  0.50000000  1
  O  O2101  1  0.50000000  0.04076000  0.35419000  1
  O  O2102  1  0.35419000  0.50000000  0.95924000  1
  O  O2103  1  0.95924000  0.50000000  0.35419000  1
  O  O2104  1  0.35419000  0.04076000  0.50000000  1
  O  O2105  1  0.50000000  0.64581000  0.95924000  1
  O  O2106  1  0.95924000  0.35419000  0.50000000  1
  O  O2107  1  0.50000000  0.95924000  0.64581000  1
  O  O2108  1  0.35419000  0.50000000  0.04076000  1
  O  O2109  1  0.95924000  0.50000000  0.64581000  1
  O  O2110  1  0.35419000  0.95924000  0.50000000  1
  O  O2111  1  0.50000000  0.35419000  0.04076000  1
  O  O2112  1  0.84859000  0.57547000  0.50000000  1
  O  O2113  1  0.50000000  0.84859000  0.57547000  1
  O  O2114  1  0.57547000  0.50000000  0.84859000  1
  O  O2115  1  0.84859000  0.50000000  0.57547000  1
  O  O2116  1  0.57547000  0.84859000  0.50000000  1
  O  O2117  1  0.50000000  0.57547000  0.84859000  1
  O  O2118  1  0.84859000  0.42453000  0.50000000  1
  O  O2119  1  0.50000000  0.15141000  0.42453000  1
  O  O2120  1  0.57547000  0.50000000  0.15141000  1
  O  O2121  1  0.84859000  0.50000000  0.42453000  1
  O  O2122  1  0.57547000  0.15141000  0.50000000  1
  O  O2123  1  0.50000000  0.42453000  0.15141000  1
  O  O2124  1  0.15141000  0.57547000  0.50000000  1
  O  O2125  1  0.50000000  0.84859000  0.42453000  1
  O  O2126  1  0.42453000  0.50000000  0.15141000  1
  O  O2127  1  0.15141000  0.50000000  0.42453000  1
  O  O2128  1  0.42453000  0.84859000  0.50000000  1
  O  O2129  1  0.50000000  0.57547000  0.15141000  1
  O  O2130  1  0.15141000  0.42453000  0.50000000  1
  O  O2131  1  0.50000000  0.15141000  0.57547000  1
  O  O2132  1  0.42453000  0.50000000  0.84859000  1
  O  O2133  1  0.15141000  0.50000000  0.57547000  1
  O  O2134  1  0.42453000  0.15141000  0.50000000  1
  O  O2135  1  0.50000000  0.42453000  0.84859000  1
  O  O2136  1  0.34859000  0.07547000  0.00000000  1
  O  O2137  1  0.00000000  0.34859000  0.07547000  1
  O  O2138  1  0.07547000  0.00000000  0.34859000  1
  O  O2139  1  0.34859000  0.00000000  0.07547000  1
  O  O2140  1  0.07547000  0.34859000  0.00000000  1
  O  O2141  1  0.00000000  0.07547000  0.34859000  1
  O  O2142  1  0.34859000  0.92453000  0.00000000  1
  O  O2143  1  0.00000000  0.65141000  0.92453000  1
  O  O2144  1  0.07547000  0.00000000  0.65141000  1
  O  O2145  1  0.34859000  0.00000000  0.92453000  1
  O  O2146  1  0.07547000  0.65141000  0.00000000  1
  O  O2147  1  0.00000000  0.92453000  0.65141000  1
  O  O2148  1  0.65141000  0.07547000  0.00000000  1
  O  O2149  1  0.00000000  0.34859000  0.92453000  1
  O  O2150  1  0.92453000  0.00000000  0.65141000  1
  O  O2151  1  0.65141000  0.00000000  0.92453000  1
  O  O2152  1  0.92453000  0.34859000  0.00000000  1
  O  O2153  1  0.00000000  0.07547000  0.65141000  1
  O  O2154  1  0.65141000  0.92453000  0.00000000  1
  O  O2155  1  0.00000000  0.65141000  0.07547000  1
  O  O2156  1  0.92453000  0.00000000  0.34859000  1
  O  O2157  1  0.65141000  0.00000000  0.07547000  1
  O  O2158  1  0.92453000  0.65141000  0.00000000  1
  O  O2159  1  0.00000000  0.92453000  0.34859000  1
  O  O2160  1  0.73689000  0.64760000  0.50000000  1
  O  O2161  1  0.50000000  0.73689000  0.64760000  1
  O  O2162  1  0.64760000  0.50000000  0.73689000  1
  O  O2163  1  0.73689000  0.50000000  0.64760000  1
  O  O2164  1  0.64760000  0.73689000  0.50000000  1
  O  O2165  1  0.50000000  0.64760000  0.73689000  1
  O  O2166  1  0.73689000  0.35240000  0.50000000  1
  O  O2167  1  0.50000000  0.26311000  0.35240000  1
  O  O2168  1  0.64760000  0.50000000  0.26311000  1
  O  O2169  1  0.73689000  0.50000000  0.35240000  1
  O  O2170  1  0.64760000  0.26311000  0.50000000  1
  O  O2171  1  0.50000000  0.35240000  0.26311000  1
  O  O2172  1  0.26311000  0.64760000  0.50000000  1
  O  O2173  1  0.50000000  0.73689000  0.35240000  1
  O  O2174  1  0.35240000  0.50000000  0.26311000  1
  O  O2175  1  0.26311000  0.50000000  0.35240000  1
  O  O2176  1  0.35240000  0.73689000  0.50000000  1
  O  O2177  1  0.50000000  0.64760000  0.26311000  1
  O  O2178  1  0.26311000  0.35240000  0.50000000  1
  O  O2179  1  0.50000000  0.26311000  0.64760000  1
  O  O2180  1  0.35240000  0.50000000  0.73689000  1
  O  O2181  1  0.26311000  0.50000000  0.64760000  1
  O  O2182  1  0.35240000  0.26311000  0.50000000  1
  O  O2183  1  0.50000000  0.35240000  0.73689000  1
  O  O2184  1  0.23689000  0.14760000  0.00000000  1
  O  O2185  1  0.00000000  0.23689000  0.14760000  1
  O  O2186  1  0.14760000  0.00000000  0.23689000  1
  O  O2187  1  0.23689000  0.00000000  0.14760000  1
  O  O2188  1  0.14760000  0.23689000  0.00000000  1
  O  O2189  1  0.00000000  0.14760000  0.23689000  1
  O  O2190  1  0.23689000  0.85240000  0.00000000  1
  O  O2191  1  0.00000000  0.76311000  0.85240000  1
  O  O2192  1  0.14760000  0.00000000  0.76311000  1
  O  O2193  1  0.23689000  0.00000000  0.85240000  1
  O  O2194  1  0.14760000  0.76311000  0.00000000  1
  O  O2195  1  0.00000000  0.85240000  0.76311000  1
  O  O2196  1  0.76311000  0.14760000  0.00000000  1
  O  O2197  1  0.00000000  0.23689000  0.85240000  1
  O  O2198  1  0.85240000  0.00000000  0.76311000  1
  O  O2199  1  0.76311000  0.00000000  0.85240000  1
  O  O2200  1  0.85240000  0.23689000  0.00000000  1
  O  O2201  1  0.00000000  0.14760000  0.76311000  1
  O  O2202  1  0.76311000  0.85240000  0.00000000  1
  O  O2203  1  0.00000000  0.76311000  0.14760000  1
  O  O2204  1  0.85240000  0.00000000  0.23689000  1
  O  O2205  1  0.76311000  0.00000000  0.14760000  1
  O  O2206  1  0.85240000  0.76311000  0.00000000  1
  O  O2207  1  0.00000000  0.85240000  0.23689000  1
  O  O2208  1  0.70674000  0.57508000  0.50000000  1
  O  O2209  1  0.50000000  0.70674000  0.57508000  1
  O  O2210  1  0.57508000  0.50000000  0.70674000  1
  O  O2211  1  0.70674000  0.50000000  0.57508000  1
  O  O2212  1  0.57508000  0.70674000  0.50000000  1
  O  O2213  1  0.50000000  0.57508000  0.70674000  1
  O  O2214  1  0.70674000  0.42492000  0.50000000  1
  O  O2215  1  0.50000000  0.29326000  0.42492000  1
  O  O2216  1  0.57508000  0.50000000  0.29326000  1
  O  O2217  1  0.70674000  0.50000000  0.42492000  1
  O  O2218  1  0.57508000  0.29326000  0.50000000  1
  O  O2219  1  0.50000000  0.42492000  0.29326000  1
  O  O2220  1  0.29326000  0.57508000  0.50000000  1
  O  O2221  1  0.50000000  0.70674000  0.42492000  1
  O  O2222  1  0.42492000  0.50000000  0.29326000  1
  O  O2223  1  0.29326000  0.50000000  0.42492000  1
  O  O2224  1  0.42492000  0.70674000  0.50000000  1
  O  O2225  1  0.50000000  0.57508000  0.29326000  1
  O  O2226  1  0.29326000  0.42492000  0.50000000  1
  O  O2227  1  0.50000000  0.29326000  0.57508000  1
  O  O2228  1  0.42492000  0.50000000  0.70674000  1
  O  O2229  1  0.29326000  0.50000000  0.57508000  1
  O  O2230  1  0.42492000  0.29326000  0.50000000  1
  O  O2231  1  0.50000000  0.42492000  0.70674000  1
  O  O2232  1  0.20674000  0.07508000  0.00000000  1
  O  O2233  1  0.00000000  0.20674000  0.07508000  1
  O  O2234  1  0.07508000  0.00000000  0.20674000  1
  O  O2235  1  0.20674000  0.00000000  0.07508000  1
  O  O2236  1  0.07508000  0.20674000  0.00000000  1
  O  O2237  1  0.00000000  0.07508000  0.20674000  1
  O  O2238  1  0.20674000  0.92492000  0.00000000  1
  O  O2239  1  0.00000000  0.79326000  0.92492000  1
  O  O2240  1  0.07508000  0.00000000  0.79326000  1
  O  O2241  1  0.20674000  0.00000000  0.92492000  1
  O  O2242  1  0.07508000  0.79326000  0.00000000  1
  O  O2243  1  0.00000000  0.92492000  0.79326000  1
  O  O2244  1  0.79326000  0.07508000  0.00000000  1
  O  O2245  1  0.00000000  0.20674000  0.92492000  1
  O  O2246  1  0.92492000  0.00000000  0.79326000  1
  O  O2247  1  0.79326000  0.00000000  0.92492000  1
  O  O2248  1  0.92492000  0.20674000  0.00000000  1
  O  O2249  1  0.00000000  0.07508000  0.79326000  1
  O  O2250  1  0.79326000  0.92492000  0.00000000  1
  O  O2251  1  0.00000000  0.79326000  0.07508000  1
  O  O2252  1  0.92492000  0.00000000  0.20674000  1
  O  O2253  1  0.79326000  0.00000000  0.07508000  1
  O  O2254  1  0.92492000  0.79326000  0.00000000  1
  O  O2255  1  0.00000000  0.92492000  0.20674000  1
  O  O2256  1  0.62679000  0.57503000  0.50000000  1
  O  O2257  1  0.50000000  0.62679000  0.57503000  1
  O  O2258  1  0.57503000  0.50000000  0.62679000  1
  O  O2259  1  0.62679000  0.50000000  0.57503000  1
  O  O2260  1  0.57503000  0.62679000  0.50000000  1
  O  O2261  1  0.50000000  0.57503000  0.62679000  1
  O  O2262  1  0.62679000  0.42497000  0.50000000  1
  O  O2263  1  0.50000000  0.37321000  0.42497000  1
  O  O2264  1  0.57503000  0.50000000  0.37321000  1
  O  O2265  1  0.62679000  0.50000000  0.42497000  1
  O  O2266  1  0.57503000  0.37321000  0.50000000  1
  O  O2267  1  0.50000000  0.42497000  0.37321000  1
  O  O2268  1  0.37321000  0.57503000  0.50000000  1
  O  O2269  1  0.50000000  0.62679000  0.42497000  1
  O  O2270  1  0.42497000  0.50000000  0.37321000  1
  O  O2271  1  0.37321000  0.50000000  0.42497000  1
  O  O2272  1  0.42497000  0.62679000  0.50000000  1
  O  O2273  1  0.50000000  0.57503000  0.37321000  1
  O  O2274  1  0.37321000  0.42497000  0.50000000  1
  O  O2275  1  0.50000000  0.37321000  0.57503000  1
  O  O2276  1  0.42497000  0.50000000  0.62679000  1
  O  O2277  1  0.37321000  0.50000000  0.57503000  1
  O  O2278  1  0.42497000  0.37321000  0.50000000  1
  O  O2279  1  0.50000000  0.42497000  0.62679000  1
  O  O2280  1  0.12679000  0.07503000  0.00000000  1
  O  O2281  1  0.00000000  0.12679000  0.07503000  1
  O  O2282  1  0.07503000  0.00000000  0.12679000  1
  O  O2283  1  0.12679000  0.00000000  0.07503000  1
  O  O2284  1  0.07503000  0.12679000  0.00000000  1
  O  O2285  1  0.00000000  0.07503000  0.12679000  1
  O  O2286  1  0.12679000  0.92497000  0.00000000  1
  O  O2287  1  0.00000000  0.87321000  0.92497000  1
  O  O2288  1  0.07503000  0.00000000  0.87321000  1
  O  O2289  1  0.12679000  0.00000000  0.92497000  1
  O  O2290  1  0.07503000  0.87321000  0.00000000  1
  O  O2291  1  0.00000000  0.92497000  0.87321000  1
  O  O2292  1  0.87321000  0.07503000  0.00000000  1
  O  O2293  1  0.00000000  0.12679000  0.92497000  1
  O  O2294  1  0.92497000  0.00000000  0.87321000  1
  O  O2295  1  0.87321000  0.00000000  0.92497000  1
  O  O2296  1  0.92497000  0.12679000  0.00000000  1
  O  O2297  1  0.00000000  0.07503000  0.87321000  1
  O  O2298  1  0.87321000  0.92497000  0.00000000  1
  O  O2299  1  0.00000000  0.87321000  0.07503000  1
  O  O2300  1  0.92497000  0.00000000  0.12679000  1
  O  O2301  1  0.87321000  0.00000000  0.07503000  1
  O  O2302  1  0.92497000  0.87321000  0.00000000  1
  O  O2303  1  0.00000000  0.92497000  0.12679000  1
  O  O2304  1  0.84955000  0.50000000  0.20359000  1
  O  O2305  1  0.20359000  0.84955000  0.50000000  1
  O  O2306  1  0.50000000  0.20359000  0.84955000  1
  O  O2307  1  0.84955000  0.20359000  0.50000000  1
  O  O2308  1  0.50000000  0.84955000  0.20359000  1
  O  O2309  1  0.20359000  0.50000000  0.84955000  1
  O  O2310  1  0.84955000  0.50000000  0.79641000  1
  O  O2311  1  0.20359000  0.15045000  0.50000000  1
  O  O2312  1  0.50000000  0.79641000  0.15045000  1
  O  O2313  1  0.84955000  0.79641000  0.50000000  1
  O  O2314  1  0.50000000  0.15045000  0.79641000  1
  O  O2315  1  0.20359000  0.50000000  0.15045000  1
  O  O2316  1  0.15045000  0.50000000  0.79641000  1
  O  O2317  1  0.79641000  0.84955000  0.50000000  1
  O  O2318  1  0.50000000  0.20359000  0.15045000  1
  O  O2319  1  0.15045000  0.20359000  0.50000000  1
  O  O2320  1  0.50000000  0.84955000  0.79641000  1
  O  O2321  1  0.79641000  0.50000000  0.15045000  1
  O  O2322  1  0.15045000  0.50000000  0.20359000  1
  O  O2323  1  0.79641000  0.15045000  0.50000000  1
  O  O2324  1  0.50000000  0.79641000  0.84955000  1
  O  O2325  1  0.15045000  0.79641000  0.50000000  1
  O  O2326  1  0.50000000  0.15045000  0.20359000  1
  O  O2327  1  0.79641000  0.50000000  0.84955000  1
  O  O2328  1  0.34955000  0.00000000  0.70359000  1
  O  O2329  1  0.70359000  0.34955000  0.00000000  1
  O  O2330  1  0.00000000  0.70359000  0.34955000  1
  O  O2331  1  0.34955000  0.70359000  0.00000000  1
  O  O2332  1  0.00000000  0.34955000  0.70359000  1
  O  O2333  1  0.70359000  0.00000000  0.34955000  1
  O  O2334  1  0.34955000  0.00000000  0.29641000  1
  O  O2335  1  0.70359000  0.65045000  0.00000000  1
  O  O2336  1  0.00000000  0.29641000  0.65045000  1
  O  O2337  1  0.34955000  0.29641000  0.00000000  1
  O  O2338  1  0.00000000  0.65045000  0.29641000  1
  O  O2339  1  0.70359000  0.00000000  0.65045000  1
  O  O2340  1  0.65045000  0.00000000  0.29641000  1
  O  O2341  1  0.29641000  0.34955000  0.00000000  1
  O  O2342  1  0.00000000  0.70359000  0.65045000  1
  O  O2343  1  0.65045000  0.70359000  0.00000000  1
  O  O2344  1  0.00000000  0.34955000  0.29641000  1
  O  O2345  1  0.29641000  0.00000000  0.65045000  1
  O  O2346  1  0.65045000  0.00000000  0.70359000  1
  O  O2347  1  0.29641000  0.65045000  0.00000000  1
  O  O2348  1  0.00000000  0.29641000  0.34955000  1
  O  O2349  1  0.65045000  0.29641000  0.00000000  1
  O  O2350  1  0.00000000  0.65045000  0.70359000  1
  O  O2351  1  0.29641000  0.00000000  0.34955000  1
  O  O2352  1  0.57003000  0.05449000  0.05449000  1
  O  O2353  1  0.05449000  0.57003000  0.05449000  1
  O  O2354  1  0.05449000  0.05449000  0.57003000  1
  O  O2355  1  0.57003000  0.94551000  0.94551000  1
  O  O2356  1  0.05449000  0.42997000  0.94551000  1
  O  O2357  1  0.05449000  0.94551000  0.42997000  1
  O  O2358  1  0.42997000  0.05449000  0.94551000  1
  O  O2359  1  0.94551000  0.57003000  0.94551000  1
  O  O2360  1  0.94551000  0.05449000  0.42997000  1
  O  O2361  1  0.42997000  0.94551000  0.05449000  1
  O  O2362  1  0.94551000  0.42997000  0.05449000  1
  O  O2363  1  0.94551000  0.94551000  0.57003000  1
  O  O2364  1  0.42997000  0.94551000  0.94551000  1
  O  O2365  1  0.94551000  0.42997000  0.94551000  1
  O  O2366  1  0.94551000  0.94551000  0.42997000  1
  O  O2367  1  0.42997000  0.05449000  0.05449000  1
  O  O2368  1  0.94551000  0.57003000  0.05449000  1
  O  O2369  1  0.94551000  0.05449000  0.57003000  1
  O  O2370  1  0.57003000  0.94551000  0.05449000  1
  O  O2371  1  0.05449000  0.42997000  0.05449000  1
  O  O2372  1  0.05449000  0.94551000  0.57003000  1
  O  O2373  1  0.57003000  0.05449000  0.94551000  1
  O  O2374  1  0.05449000  0.57003000  0.94551000  1
  O  O2375  1  0.05449000  0.05449000  0.42997000  1
  O  O2376  1  0.07003000  0.55449000  0.55449000  1
  O  O2377  1  0.55449000  0.07003000  0.55449000  1
  O  O2378  1  0.55449000  0.55449000  0.07003000  1
  O  O2379  1  0.07003000  0.44551000  0.44551000  1
  O  O2380  1  0.55449000  0.92997000  0.44551000  1
  O  O2381  1  0.55449000  0.44551000  0.92997000  1
  O  O2382  1  0.92997000  0.55449000  0.44551000  1
  O  O2383  1  0.44551000  0.07003000  0.44551000  1
  O  O2384  1  0.44551000  0.55449000  0.92997000  1
  O  O2385  1  0.92997000  0.44551000  0.55449000  1
  O  O2386  1  0.44551000  0.92997000  0.55449000  1
  O  O2387  1  0.44551000  0.44551000  0.07003000  1
  O  O2388  1  0.92997000  0.44551000  0.44551000  1
  O  O2389  1  0.44551000  0.92997000  0.44551000  1
  O  O2390  1  0.44551000  0.44551000  0.92997000  1
  O  O2391  1  0.92997000  0.55449000  0.55449000  1
  O  O2392  1  0.44551000  0.07003000  0.55449000  1
  O  O2393  1  0.44551000  0.55449000  0.07003000  1
  O  O2394  1  0.07003000  0.44551000  0.55449000  1
  O  O2395  1  0.55449000  0.92997000  0.55449000  1
  O  O2396  1  0.55449000  0.44551000  0.07003000  1
  O  O2397  1  0.07003000  0.55449000  0.44551000  1
  O  O2398  1  0.55449000  0.07003000  0.44551000  1
  O  O2399  1  0.55449000  0.55449000  0.92997000  1
  O  O2400  1  0.84673000  0.55462000  0.55462000  1
  O  O2401  1  0.55462000  0.84673000  0.55462000  1
  O  O2402  1  0.55462000  0.55462000  0.84673000  1
  O  O2403  1  0.84673000  0.44538000  0.44538000  1
  O  O2404  1  0.55462000  0.15327000  0.44538000  1
  O  O2405  1  0.55462000  0.44538000  0.15327000  1
  O  O2406  1  0.15327000  0.55462000  0.44538000  1
  O  O2407  1  0.44538000  0.84673000  0.44538000  1
  O  O2408  1  0.44538000  0.55462000  0.15327000  1
  O  O2409  1  0.15327000  0.44538000  0.55462000  1
  O  O2410  1  0.44538000  0.15327000  0.55462000  1
  O  O2411  1  0.44538000  0.44538000  0.84673000  1
  O  O2412  1  0.15327000  0.44538000  0.44538000  1
  O  O2413  1  0.44538000  0.15327000  0.44538000  1
  O  O2414  1  0.44538000  0.44538000  0.15327000  1
  O  O2415  1  0.15327000  0.55462000  0.55462000  1
  O  O2416  1  0.44538000  0.84673000  0.55462000  1
  O  O2417  1  0.44538000  0.55462000  0.84673000  1
  O  O2418  1  0.84673000  0.44538000  0.55462000  1
  O  O2419  1  0.55462000  0.15327000  0.55462000  1
  O  O2420  1  0.55462000  0.44538000  0.84673000  1
  O  O2421  1  0.84673000  0.55462000  0.44538000  1
  O  O2422  1  0.55462000  0.84673000  0.44538000  1
  O  O2423  1  0.55462000  0.55462000  0.15327000  1
  O  O2424  1  0.34673000  0.05462000  0.05462000  1
  O  O2425  1  0.05462000  0.34673000  0.05462000  1
  O  O2426  1  0.05462000  0.05462000  0.34673000  1
  O  O2427  1  0.34673000  0.94538000  0.94538000  1
  O  O2428  1  0.05462000  0.65327000  0.94538000  1
  O  O2429  1  0.05462000  0.94538000  0.65327000  1
  O  O2430  1  0.65327000  0.05462000  0.94538000  1
  O  O2431  1  0.94538000  0.34673000  0.94538000  1
  O  O2432  1  0.94538000  0.05462000  0.65327000  1
  O  O2433  1  0.65327000  0.94538000  0.05462000  1
  O  O2434  1  0.94538000  0.65327000  0.05462000  1
  O  O2435  1  0.94538000  0.94538000  0.34673000  1
  O  O2436  1  0.65327000  0.94538000  0.94538000  1
  O  O2437  1  0.94538000  0.65327000  0.94538000  1
  O  O2438  1  0.94538000  0.94538000  0.65327000  1
  O  O2439  1  0.65327000  0.05462000  0.05462000  1
  O  O2440  1  0.94538000  0.34673000  0.05462000  1
  O  O2441  1  0.94538000  0.05462000  0.34673000  1
  O  O2442  1  0.34673000  0.94538000  0.05462000  1
  O  O2443  1  0.05462000  0.65327000  0.05462000  1
  O  O2444  1  0.05462000  0.94538000  0.34673000  1
  O  O2445  1  0.34673000  0.05462000  0.94538000  1
  O  O2446  1  0.05462000  0.34673000  0.94538000  1
  O  O2447  1  0.05462000  0.05462000  0.65327000  1
  O  O2448  1  0.70947000  0.55496000  0.55496000  1
  O  O2449  1  0.55496000  0.70947000  0.55496000  1
  O  O2450  1  0.55496000  0.55496000  0.70947000  1
  O  O2451  1  0.70947000  0.44504000  0.44504000  1
  O  O2452  1  0.55496000  0.29053000  0.44504000  1
  O  O2453  1  0.55496000  0.44504000  0.29053000  1
  O  O2454  1  0.29053000  0.55496000  0.44504000  1
  O  O2455  1  0.44504000  0.70947000  0.44504000  1
  O  O2456  1  0.44504000  0.55496000  0.29053000  1
  O  O2457  1  0.29053000  0.44504000  0.55496000  1
  O  O2458  1  0.44504000  0.29053000  0.55496000  1
  O  O2459  1  0.44504000  0.44504000  0.70947000  1
  O  O2460  1  0.29053000  0.44504000  0.44504000  1
  O  O2461  1  0.44504000  0.29053000  0.44504000  1
  O  O2462  1  0.44504000  0.44504000  0.29053000  1
  O  O2463  1  0.29053000  0.55496000  0.55496000  1
  O  O2464  1  0.44504000  0.70947000  0.55496000  1
  O  O2465  1  0.44504000  0.55496000  0.70947000  1
  O  O2466  1  0.70947000  0.44504000  0.55496000  1
  O  O2467  1  0.55496000  0.29053000  0.55496000  1
  O  O2468  1  0.55496000  0.44504000  0.70947000  1
  O  O2469  1  0.70947000  0.55496000  0.44504000  1
  O  O2470  1  0.55496000  0.70947000  0.44504000  1
  O  O2471  1  0.55496000  0.55496000  0.29053000  1
  O  O2472  1  0.20947000  0.05496000  0.05496000  1
  O  O2473  1  0.05496000  0.20947000  0.05496000  1
  O  O2474  1  0.05496000  0.05496000  0.20947000  1
  O  O2475  1  0.20947000  0.94504000  0.94504000  1
  O  O2476  1  0.05496000  0.79053000  0.94504000  1
  O  O2477  1  0.05496000  0.94504000  0.79053000  1
  O  O2478  1  0.79053000  0.05496000  0.94504000  1
  O  O2479  1  0.94504000  0.20947000  0.94504000  1
  O  O2480  1  0.94504000  0.05496000  0.79053000  1
  O  O2481  1  0.79053000  0.94504000  0.05496000  1
  O  O2482  1  0.94504000  0.79053000  0.05496000  1
  O  O2483  1  0.94504000  0.94504000  0.20947000  1
  O  O2484  1  0.79053000  0.94504000  0.94504000  1
  O  O2485  1  0.94504000  0.79053000  0.94504000  1
  O  O2486  1  0.94504000  0.94504000  0.79053000  1
  O  O2487  1  0.79053000  0.05496000  0.05496000  1
  O  O2488  1  0.94504000  0.20947000  0.05496000  1
  O  O2489  1  0.94504000  0.05496000  0.20947000  1
  O  O2490  1  0.20947000  0.94504000  0.05496000  1
  O  O2491  1  0.05496000  0.79053000  0.05496000  1
  O  O2492  1  0.05496000  0.94504000  0.20947000  1
  O  O2493  1  0.20947000  0.05496000  0.94504000  1
  O  O2494  1  0.05496000  0.20947000  0.94504000  1
  O  O2495  1  0.05496000  0.05496000  0.79053000  1
  O  O2496  1  0.33481000  0.33481000  0.04201000  1
  O  O2497  1  0.04201000  0.33481000  0.33481000  1
  O  O2498  1  0.33481000  0.04201000  0.33481000  1
  O  O2499  1  0.33481000  0.66519000  0.95799000  1
  O  O2500  1  0.04201000  0.66519000  0.66519000  1
  O  O2501  1  0.33481000  0.95799000  0.66519000  1
  O  O2502  1  0.66519000  0.33481000  0.95799000  1
  O  O2503  1  0.95799000  0.33481000  0.66519000  1
  O  O2504  1  0.66519000  0.04201000  0.66519000  1
  O  O2505  1  0.66519000  0.66519000  0.04201000  1
  O  O2506  1  0.95799000  0.66519000  0.33481000  1
  O  O2507  1  0.66519000  0.95799000  0.33481000  1
  O  O2508  1  0.66519000  0.66519000  0.95799000  1
  O  O2509  1  0.95799000  0.66519000  0.66519000  1
  O  O2510  1  0.66519000  0.95799000  0.66519000  1
  O  O2511  1  0.66519000  0.33481000  0.04201000  1
  O  O2512  1  0.95799000  0.33481000  0.33481000  1
  O  O2513  1  0.66519000  0.04201000  0.33481000  1
  O  O2514  1  0.33481000  0.66519000  0.04201000  1
  O  O2515  1  0.04201000  0.66519000  0.33481000  1
  O  O2516  1  0.33481000  0.95799000  0.33481000  1
  O  O2517  1  0.33481000  0.33481000  0.95799000  1
  O  O2518  1  0.04201000  0.33481000  0.66519000  1
  O  O2519  1  0.33481000  0.04201000  0.66519000  1
  O  O2520  1  0.83481000  0.83481000  0.54201000  1
  O  O2521  1  0.54201000  0.83481000  0.83481000  1
  O  O2522  1  0.83481000  0.54201000  0.83481000  1
  O  O2523  1  0.83481000  0.16519000  0.45799000  1
  O  O2524  1  0.54201000  0.16519000  0.16519000  1
  O  O2525  1  0.83481000  0.45799000  0.16519000  1
  O  O2526  1  0.16519000  0.83481000  0.45799000  1
  O  O2527  1  0.45799000  0.83481000  0.16519000  1
  O  O2528  1  0.16519000  0.54201000  0.16519000  1
  O  O2529  1  0.16519000  0.16519000  0.54201000  1
  O  O2530  1  0.45799000  0.16519000  0.83481000  1
  O  O2531  1  0.16519000  0.45799000  0.83481000  1
  O  O2532  1  0.16519000  0.16519000  0.45799000  1
  O  O2533  1  0.45799000  0.16519000  0.16519000  1
  O  O2534  1  0.16519000  0.45799000  0.16519000  1
  O  O2535  1  0.16519000  0.83481000  0.54201000  1
  O  O2536  1  0.45799000  0.83481000  0.83481000  1
  O  O2537  1  0.16519000  0.54201000  0.83481000  1
  O  O2538  1  0.83481000  0.16519000  0.54201000  1
  O  O2539  1  0.54201000  0.16519000  0.83481000  1
  O  O2540  1  0.83481000  0.45799000  0.83481000  1
  O  O2541  1  0.83481000  0.83481000  0.45799000  1
  O  O2542  1  0.54201000  0.83481000  0.16519000  1
  O  O2543  1  0.83481000  0.54201000  0.16519000  1
  O  O2544  1  0.66573000  0.66573000  0.82102000  1
  O  O2545  1  0.82102000  0.66573000  0.66573000  1
  O  O2546  1  0.66573000  0.82102000  0.66573000  1
  O  O2547  1  0.66573000  0.33427000  0.17898000  1
  O  O2548  1  0.82102000  0.33427000  0.33427000  1
  O  O2549  1  0.66573000  0.17898000  0.33427000  1
  O  O2550  1  0.33427000  0.66573000  0.17898000  1
  O  O2551  1  0.17898000  0.66573000  0.33427000  1
  O  O2552  1  0.33427000  0.82102000  0.33427000  1
  O  O2553  1  0.33427000  0.33427000  0.82102000  1
  O  O2554  1  0.17898000  0.33427000  0.66573000  1
  O  O2555  1  0.33427000  0.17898000  0.66573000  1
  O  O2556  1  0.33427000  0.33427000  0.17898000  1
  O  O2557  1  0.17898000  0.33427000  0.33427000  1
  O  O2558  1  0.33427000  0.17898000  0.33427000  1
  O  O2559  1  0.33427000  0.66573000  0.82102000  1
  O  O2560  1  0.17898000  0.66573000  0.66573000  1
  O  O2561  1  0.33427000  0.82102000  0.66573000  1
  O  O2562  1  0.66573000  0.33427000  0.82102000  1
  O  O2563  1  0.82102000  0.33427000  0.66573000  1
  O  O2564  1  0.66573000  0.17898000  0.66573000  1
  O  O2565  1  0.66573000  0.66573000  0.17898000  1
  O  O2566  1  0.82102000  0.66573000  0.33427000  1
  O  O2567  1  0.66573000  0.82102000  0.33427000  1
  O  O2568  1  0.16573000  0.16573000  0.32102000  1
  O  O2569  1  0.32102000  0.16573000  0.16573000  1
  O  O2570  1  0.16573000  0.32102000  0.16573000  1
  O  O2571  1  0.16573000  0.83427000  0.67898000  1
  O  O2572  1  0.32102000  0.83427000  0.83427000  1
  O  O2573  1  0.16573000  0.67898000  0.83427000  1
  O  O2574  1  0.83427000  0.16573000  0.67898000  1
  O  O2575  1  0.67898000  0.16573000  0.83427000  1
  O  O2576  1  0.83427000  0.32102000  0.83427000  1
  O  O2577  1  0.83427000  0.83427000  0.32102000  1
  O  O2578  1  0.67898000  0.83427000  0.16573000  1
  O  O2579  1  0.83427000  0.67898000  0.16573000  1
  O  O2580  1  0.83427000  0.83427000  0.67898000  1
  O  O2581  1  0.67898000  0.83427000  0.83427000  1
  O  O2582  1  0.83427000  0.67898000  0.83427000  1
  O  O2583  1  0.83427000  0.16573000  0.32102000  1
  O  O2584  1  0.67898000  0.16573000  0.16573000  1
  O  O2585  1  0.83427000  0.32102000  0.16573000  1
  O  O2586  1  0.16573000  0.83427000  0.32102000  1
  O  O2587  1  0.32102000  0.83427000  0.16573000  1
  O  O2588  1  0.16573000  0.67898000  0.16573000  1
  O  O2589  1  0.16573000  0.16573000  0.67898000  1
  O  O2590  1  0.32102000  0.16573000  0.83427000  1
  O  O2591  1  0.16573000  0.32102000  0.83427000  1
  O  O2592  1  0.72322000  0.72322000  0.56855000  1
  O  O2593  1  0.56855000  0.72322000  0.72322000  1
  O  O2594  1  0.72322000  0.56855000  0.72322000  1
  O  O2595  1  0.72322000  0.27678000  0.43145000  1
  O  O2596  1  0.56855000  0.27678000  0.27678000  1
  O  O2597  1  0.72322000  0.43145000  0.27678000  1
  O  O2598  1  0.27678000  0.72322000  0.43145000  1
  O  O2599  1  0.43145000  0.72322000  0.27678000  1
  O  O2600  1  0.27678000  0.56855000  0.27678000  1
  O  O2601  1  0.27678000  0.27678000  0.56855000  1
  O  O2602  1  0.43145000  0.27678000  0.72322000  1
  O  O2603  1  0.27678000  0.43145000  0.72322000  1
  O  O2604  1  0.27678000  0.27678000  0.43145000  1
  O  O2605  1  0.43145000  0.27678000  0.27678000  1
  O  O2606  1  0.27678000  0.43145000  0.27678000  1
  O  O2607  1  0.27678000  0.72322000  0.56855000  1
  O  O2608  1  0.43145000  0.72322000  0.72322000  1
  O  O2609  1  0.27678000  0.56855000  0.72322000  1
  O  O2610  1  0.72322000  0.27678000  0.56855000  1
  O  O2611  1  0.56855000  0.27678000  0.72322000  1
  O  O2612  1  0.72322000  0.43145000  0.72322000  1
  O  O2613  1  0.72322000  0.72322000  0.43145000  1
  O  O2614  1  0.56855000  0.72322000  0.27678000  1
  O  O2615  1  0.72322000  0.56855000  0.27678000  1
  O  O2616  1  0.22322000  0.22322000  0.06855000  1
  O  O2617  1  0.06855000  0.22322000  0.22322000  1
  O  O2618  1  0.22322000  0.06855000  0.22322000  1
  O  O2619  1  0.22322000  0.77678000  0.93145000  1
  O  O2620  1  0.06855000  0.77678000  0.77678000  1
  O  O2621  1  0.22322000  0.93145000  0.77678000  1
  O  O2622  1  0.77678000  0.22322000  0.93145000  1
  O  O2623  1  0.93145000  0.22322000  0.77678000  1
  O  O2624  1  0.77678000  0.06855000  0.77678000  1
  O  O2625  1  0.77678000  0.77678000  0.06855000  1
  O  O2626  1  0.93145000  0.77678000  0.22322000  1
  O  O2627  1  0.77678000  0.93145000  0.22322000  1
  O  O2628  1  0.77678000  0.77678000  0.93145000  1
  O  O2629  1  0.93145000  0.77678000  0.77678000  1
  O  O2630  1  0.77678000  0.93145000  0.77678000  1
  O  O2631  1  0.77678000  0.22322000  0.06855000  1
  O  O2632  1  0.93145000  0.22322000  0.22322000  1
  O  O2633  1  0.77678000  0.06855000  0.22322000  1
  O  O2634  1  0.22322000  0.77678000  0.06855000  1
  O  O2635  1  0.06855000  0.77678000  0.22322000  1
  O  O2636  1  0.22322000  0.93145000  0.22322000  1
  O  O2637  1  0.22322000  0.22322000  0.93145000  1
  O  O2638  1  0.06855000  0.22322000  0.77678000  1
  O  O2639  1  0.22322000  0.06855000  0.77678000  1
  O  O2640  1  0.61135000  0.61135000  0.54355000  1
  O  O2641  1  0.54355000  0.61135000  0.61135000  1
  O  O2642  1  0.61135000  0.54355000  0.61135000  1
  O  O2643  1  0.61135000  0.38865000  0.45645000  1
  O  O2644  1  0.54355000  0.38865000  0.38865000  1
  O  O2645  1  0.61135000  0.45645000  0.38865000  1
  O  O2646  1  0.38865000  0.61135000  0.45645000  1
  O  O2647  1  0.45645000  0.61135000  0.38865000  1
  O  O2648  1  0.38865000  0.54355000  0.38865000  1
  O  O2649  1  0.38865000  0.38865000  0.54355000  1
  O  O2650  1  0.45645000  0.38865000  0.61135000  1
  O  O2651  1  0.38865000  0.45645000  0.61135000  1
  O  O2652  1  0.38865000  0.38865000  0.45645000  1
  O  O2653  1  0.45645000  0.38865000  0.38865000  1
  O  O2654  1  0.38865000  0.45645000  0.38865000  1
  O  O2655  1  0.38865000  0.61135000  0.54355000  1
  O  O2656  1  0.45645000  0.61135000  0.61135000  1
  O  O2657  1  0.38865000  0.54355000  0.61135000  1
  O  O2658  1  0.61135000  0.38865000  0.54355000  1
  O  O2659  1  0.54355000  0.38865000  0.61135000  1
  O  O2660  1  0.61135000  0.45645000  0.61135000  1
  O  O2661  1  0.61135000  0.61135000  0.45645000  1
  O  O2662  1  0.54355000  0.61135000  0.38865000  1
  O  O2663  1  0.61135000  0.54355000  0.38865000  1
  O  O2664  1  0.11135000  0.11135000  0.04355000  1
  O  O2665  1  0.04355000  0.11135000  0.11135000  1
  O  O2666  1  0.11135000  0.04355000  0.11135000  1
  O  O2667  1  0.11135000  0.88865000  0.95645000  1
  O  O2668  1  0.04355000  0.88865000  0.88865000  1
  O  O2669  1  0.11135000  0.95645000  0.88865000  1
  O  O2670  1  0.88865000  0.11135000  0.95645000  1
  O  O2671  1  0.95645000  0.11135000  0.88865000  1
  O  O2672  1  0.88865000  0.04355000  0.88865000  1
  O  O2673  1  0.88865000  0.88865000  0.04355000  1
  O  O2674  1  0.95645000  0.88865000  0.11135000  1
  O  O2675  1  0.88865000  0.95645000  0.11135000  1
  O  O2676  1  0.88865000  0.88865000  0.95645000  1
  O  O2677  1  0.95645000  0.88865000  0.88865000  1
  O  O2678  1  0.88865000  0.95645000  0.88865000  1
  O  O2679  1  0.88865000  0.11135000  0.04355000  1
  O  O2680  1  0.95645000  0.11135000  0.11135000  1
  O  O2681  1  0.88865000  0.04355000  0.11135000  1
  O  O2682  1  0.11135000  0.88865000  0.04355000  1
  O  O2683  1  0.04355000  0.88865000  0.11135000  1
  O  O2684  1  0.11135000  0.95645000  0.11135000  1
  O  O2685  1  0.11135000  0.11135000  0.95645000  1
  O  O2686  1  0.04355000  0.11135000  0.88865000  1
  O  O2687  1  0.11135000  0.04355000  0.88865000  1
  O  O2688  1  0.72285000  0.65386000  0.72285000  1
  O  O2689  1  0.72285000  0.72285000  0.65386000  1
  O  O2690  1  0.65386000  0.72285000  0.72285000  1
  O  O2691  1  0.72285000  0.34614000  0.27715000  1
  O  O2692  1  0.72285000  0.27715000  0.34614000  1
  O  O2693  1  0.65386000  0.27715000  0.27715000  1
  O  O2694  1  0.27715000  0.65386000  0.27715000  1
  O  O2695  1  0.27715000  0.72285000  0.34614000  1
  O  O2696  1  0.34614000  0.72285000  0.27715000  1
  O  O2697  1  0.27715000  0.34614000  0.72285000  1
  O  O2698  1  0.27715000  0.27715000  0.65386000  1
  O  O2699  1  0.34614000  0.27715000  0.72285000  1
  O  O2700  1  0.27715000  0.34614000  0.27715000  1
  O  O2701  1  0.27715000  0.27715000  0.34614000  1
  O  O2702  1  0.34614000  0.27715000  0.27715000  1
  O  O2703  1  0.27715000  0.65386000  0.72285000  1
  O  O2704  1  0.27715000  0.72285000  0.65386000  1
  O  O2705  1  0.34614000  0.72285000  0.72285000  1
  O  O2706  1  0.72285000  0.34614000  0.72285000  1
  O  O2707  1  0.72285000  0.27715000  0.65386000  1
  O  O2708  1  0.65386000  0.27715000  0.72285000  1
  O  O2709  1  0.72285000  0.65386000  0.27715000  1
  O  O2710  1  0.72285000  0.72285000  0.34614000  1
  O  O2711  1  0.65386000  0.72285000  0.27715000  1
  O  O2712  1  0.22285000  0.15386000  0.22285000  1
  O  O2713  1  0.22285000  0.22285000  0.15386000  1
  O  O2714  1  0.15386000  0.22285000  0.22285000  1
  O  O2715  1  0.22285000  0.84614000  0.77715000  1
  O  O2716  1  0.22285000  0.77715000  0.84614000  1
  O  O2717  1  0.15386000  0.77715000  0.77715000  1
  O  O2718  1  0.77715000  0.15386000  0.77715000  1
  O  O2719  1  0.77715000  0.22285000  0.84614000  1
  O  O2720  1  0.84614000  0.22285000  0.77715000  1
  O  O2721  1  0.77715000  0.84614000  0.22285000  1
  O  O2722  1  0.77715000  0.77715000  0.15386000  1
  O  O2723  1  0.84614000  0.77715000  0.22285000  1
  O  O2724  1  0.77715000  0.84614000  0.77715000  1
  O  O2725  1  0.77715000  0.77715000  0.84614000  1
  O  O2726  1  0.84614000  0.77715000  0.77715000  1
  O  O2727  1  0.77715000  0.15386000  0.22285000  1
  O  O2728  1  0.77715000  0.22285000  0.15386000  1
  O  O2729  1  0.84614000  0.22285000  0.22285000  1
  O  O2730  1  0.22285000  0.84614000  0.22285000  1
  O  O2731  1  0.22285000  0.77715000  0.15386000  1
  O  O2732  1  0.15386000  0.77715000  0.22285000  1
  O  O2733  1  0.22285000  0.15386000  0.77715000  1
  O  O2734  1  0.22285000  0.22285000  0.84614000  1
  O  O2735  1  0.15386000  0.22285000  0.77715000  1
  O  O2736  1  0.62392000  0.55516000  0.55516000  1
  O  O2737  1  0.55516000  0.62392000  0.55516000  1
  O  O2738  1  0.55516000  0.55516000  0.62392000  1
  O  O2739  1  0.62392000  0.44484000  0.44484000  1
  O  O2740  1  0.55516000  0.37608000  0.44484000  1
  O  O2741  1  0.55516000  0.44484000  0.37608000  1
  O  O2742  1  0.37608000  0.55516000  0.44484000  1
  O  O2743  1  0.44484000  0.62392000  0.44484000  1
  O  O2744  1  0.44484000  0.55516000  0.37608000  1
  O  O2745  1  0.37608000  0.44484000  0.55516000  1
  O  O2746  1  0.44484000  0.37608000  0.55516000  1
  O  O2747  1  0.44484000  0.44484000  0.62392000  1
  O  O2748  1  0.37608000  0.44484000  0.44484000  1
  O  O2749  1  0.44484000  0.37608000  0.44484000  1
  O  O2750  1  0.44484000  0.44484000  0.37608000  1
  O  O2751  1  0.37608000  0.55516000  0.55516000  1
  O  O2752  1  0.44484000  0.62392000  0.55516000  1
  O  O2753  1  0.44484000  0.55516000  0.62392000  1
  O  O2754  1  0.62392000  0.44484000  0.55516000  1
  O  O2755  1  0.55516000  0.37608000  0.55516000  1
  O  O2756  1  0.55516000  0.44484000  0.62392000  1
  O  O2757  1  0.62392000  0.55516000  0.44484000  1
  O  O2758  1  0.55516000  0.62392000  0.44484000  1
  O  O2759  1  0.55516000  0.55516000  0.37608000  1
  O  O2760  1  0.12392000  0.05516000  0.05516000  1
  O  O2761  1  0.05516000  0.12392000  0.05516000  1
  O  O2762  1  0.05516000  0.05516000  0.12392000  1
  O  O2763  1  0.12392000  0.94484000  0.94484000  1
  O  O2764  1  0.05516000  0.87608000  0.94484000  1
  O  O2765  1  0.05516000  0.94484000  0.87608000  1
  O  O2766  1  0.87608000  0.05516000  0.94484000  1
  O  O2767  1  0.94484000  0.12392000  0.94484000  1
  O  O2768  1  0.94484000  0.05516000  0.87608000  1
  O  O2769  1  0.87608000  0.94484000  0.05516000  1
  O  O2770  1  0.94484000  0.87608000  0.05516000  1
  O  O2771  1  0.94484000  0.94484000  0.12392000  1
  O  O2772  1  0.87608000  0.94484000  0.94484000  1
  O  O2773  1  0.94484000  0.87608000  0.94484000  1
  O  O2774  1  0.94484000  0.94484000  0.87608000  1
  O  O2775  1  0.87608000  0.05516000  0.05516000  1
  O  O2776  1  0.94484000  0.12392000  0.05516000  1
  O  O2777  1  0.94484000  0.05516000  0.12392000  1
  O  O2778  1  0.12392000  0.94484000  0.05516000  1
  O  O2779  1  0.05516000  0.87608000  0.05516000  1
  O  O2780  1  0.05516000  0.94484000  0.12392000  1
  O  O2781  1  0.12392000  0.05516000  0.94484000  1
  O  O2782  1  0.05516000  0.12392000  0.94484000  1
  O  O2783  1  0.05516000  0.05516000  0.87608000  1
  O  O2784  1  0.73455000  0.66666667  0.66666667  1
  O  O2785  1  0.66666667  0.73455000  0.66666667  1
  O  O2786  1  0.66666667  0.66666667  0.73455000  1
  O  O2787  1  0.73455000  0.33333333  0.33333333  1
  O  O2788  1  0.66666667  0.26545000  0.33333333  1
  O  O2789  1  0.66666667  0.33333333  0.26545000  1
  O  O2790  1  0.26545000  0.66666667  0.33333333  1
  O  O2791  1  0.33333333  0.73455000  0.33333333  1
  O  O2792  1  0.33333333  0.66666667  0.26545000  1
  O  O2793  1  0.26545000  0.33333333  0.66666667  1
  O  O2794  1  0.33333333  0.26545000  0.66666667  1
  O  O2795  1  0.33333333  0.33333333  0.73455000  1
  O  O2796  1  0.26545000  0.33333333  0.33333333  1
  O  O2797  1  0.33333333  0.26545000  0.33333333  1
  O  O2798  1  0.33333333  0.33333333  0.26545000  1
  O  O2799  1  0.26545000  0.66666667  0.66666667  1
  O  O2800  1  0.33333333  0.73455000  0.66666667  1
  O  O2801  1  0.33333333  0.66666667  0.73455000  1
  O  O2802  1  0.73455000  0.33333333  0.66666667  1
  O  O2803  1  0.66666667  0.26545000  0.66666667  1
  O  O2804  1  0.66666667  0.33333333  0.73455000  1
  O  O2805  1  0.73455000  0.66666667  0.33333333  1
  O  O2806  1  0.66666667  0.73455000  0.33333333  1
  O  O2807  1  0.66666667  0.66666667  0.26545000  1
  O  O2808  1  0.23455000  0.16666667  0.16666667  1
  O  O2809  1  0.16666667  0.23455000  0.16666667  1
  O  O2810  1  0.16666667  0.16666667  0.23455000  1
  O  O2811  1  0.23455000  0.83333333  0.83333333  1
  O  O2812  1  0.16666667  0.76545000  0.83333333  1
  O  O2813  1  0.16666667  0.83333333  0.76545000  1
  O  O2814  1  0.76545000  0.16666667  0.83333333  1
  O  O2815  1  0.83333333  0.23455000  0.83333333  1
  O  O2816  1  0.83333333  0.16666667  0.76545000  1
  O  O2817  1  0.76545000  0.83333333  0.16666667  1
  O  O2818  1  0.83333333  0.76545000  0.16666667  1
  O  O2819  1  0.83333333  0.83333333  0.23455000  1
  O  O2820  1  0.76545000  0.83333333  0.83333333  1
  O  O2821  1  0.83333333  0.76545000  0.83333333  1
  O  O2822  1  0.83333333  0.83333333  0.76545000  1
  O  O2823  1  0.76545000  0.16666667  0.16666667  1
  O  O2824  1  0.83333333  0.23455000  0.16666667  1
  O  O2825  1  0.83333333  0.16666667  0.23455000  1
  O  O2826  1  0.23455000  0.83333333  0.16666667  1
  O  O2827  1  0.16666667  0.76545000  0.16666667  1
  O  O2828  1  0.16666667  0.83333333  0.23455000  1
  O  O2829  1  0.23455000  0.16666667  0.83333333  1
  O  O2830  1  0.16666667  0.23455000  0.83333333  1
  O  O2831  1  0.16666667  0.16666667  0.76545000  1
  O  O2832  1  0.50000000  0.12853000  0.03876000  1
  O  O2833  1  0.03876000  0.50000000  0.12853000  1
  O  O2834  1  0.12853000  0.03876000  0.50000000  1
  O  O2835  1  0.50000000  0.03876000  0.12853000  1
  O  O2836  1  0.12853000  0.50000000  0.03876000  1
  O  O2837  1  0.03876000  0.12853000  0.50000000  1
  O  O2838  1  0.50000000  0.87147000  0.96124000  1
  O  O2839  1  0.03876000  0.50000000  0.87147000  1
  O  O2840  1  0.12853000  0.96124000  0.50000000  1
  O  O2841  1  0.50000000  0.96124000  0.87147000  1
  O  O2842  1  0.12853000  0.50000000  0.96124000  1
  O  O2843  1  0.03876000  0.87147000  0.50000000  1
  O  O2844  1  0.50000000  0.12853000  0.96124000  1
  O  O2845  1  0.96124000  0.50000000  0.87147000  1
  O  O2846  1  0.87147000  0.03876000  0.50000000  1
  O  O2847  1  0.50000000  0.03876000  0.87147000  1
  O  O2848  1  0.87147000  0.50000000  0.96124000  1
  O  O2849  1  0.96124000  0.12853000  0.50000000  1
  O  O2850  1  0.50000000  0.87147000  0.03876000  1
  O  O2851  1  0.96124000  0.50000000  0.12853000  1
  O  O2852  1  0.87147000  0.96124000  0.50000000  1
  O  O2853  1  0.50000000  0.96124000  0.12853000  1
  O  O2854  1  0.87147000  0.50000000  0.03876000  1
  O  O2855  1  0.96124000  0.87147000  0.50000000  1
  O  O2856  1  0.00000000  0.62853000  0.53876000  1
  O  O2857  1  0.53876000  0.00000000  0.62853000  1
  O  O2858  1  0.62853000  0.53876000  0.00000000  1
  O  O2859  1  0.00000000  0.53876000  0.62853000  1
  O  O2860  1  0.62853000  0.00000000  0.53876000  1
  O  O2861  1  0.53876000  0.62853000  0.00000000  1
  O  O2862  1  0.00000000  0.37147000  0.46124000  1
  O  O2863  1  0.53876000  0.00000000  0.37147000  1
  O  O2864  1  0.62853000  0.46124000  0.00000000  1
  O  O2865  1  0.00000000  0.46124000  0.37147000  1
  O  O2866  1  0.62853000  0.00000000  0.46124000  1
  O  O2867  1  0.53876000  0.37147000  0.00000000  1
  O  O2868  1  0.00000000  0.62853000  0.46124000  1
  O  O2869  1  0.46124000  0.00000000  0.37147000  1
  O  O2870  1  0.37147000  0.53876000  0.00000000  1
  O  O2871  1  0.00000000  0.53876000  0.37147000  1
  O  O2872  1  0.37147000  0.00000000  0.46124000  1
  O  O2873  1  0.46124000  0.62853000  0.00000000  1
  O  O2874  1  0.00000000  0.37147000  0.53876000  1
  O  O2875  1  0.46124000  0.00000000  0.62853000  1
  O  O2876  1  0.37147000  0.46124000  0.00000000  1
  O  O2877  1  0.00000000  0.46124000  0.62853000  1
  O  O2878  1  0.37147000  0.00000000  0.53876000  1
  O  O2879  1  0.46124000  0.37147000  0.00000000  1
