# generated using pymatgen
data_Si
_symmetry_space_group_name_H-M   'P 1'
_cell_length_a   44.74438000
_cell_length_b   44.74438000
_cell_length_c   44.74438000
_cell_angle_alpha   90.00000000
_cell_angle_beta   90.00000000
_cell_angle_gamma   90.00000000
_symmetry_Int_Tables_number   1
_chemical_formula_structural   Si
_chemical_formula_sum   Si1440
_cell_volume   89580.91291128
_cell_formula_units_Z   1440
loop_
 _symmetry_equiv_pos_site_id
 _symmetry_equiv_pos_as_xyz
  1  'x, y, z'
loop_
 _atom_site_type_symbol
 _atom_site_label
 _atom_site_symmetry_multiplicity
 _atom_site_fract_x
 _atom_site_fract_y
 _atom_site_fract_z
 _atom_site_occupancy
  Si  Si0  1  0.85411000  0.58357000  0.53460000  1
  Si  Si1  1  0.53460000  0.85411000  0.58357000  1
  Si  Si2  1  0.58357000  0.53460000  0.85411000  1
  Si  Si3  1  0.85411000  0.53460000  0.58357000  1
  Si  Si4  1  0.58357000  0.85411000  0.53460000  1
  Si  Si5  1  0.53460000  0.58357000  0.85411000  1
  Si  Si6  1  0.85411000  0.41643000  0.46540000  1
  Si  Si7  1  0.53460000  0.14589000  0.41643000  1
  Si  Si8  1  0.58357000  0.46540000  0.14589000  1
  Si  Si9  1  0.85411000  0.46540000  0.41643000  1
  Si  Si10  1  0.58357000  0.14589000  0.46540000  1
  Si  Si11  1  0.53460000  0.41643000  0.14589000  1
  Si  Si12  1  0.14589000  0.58357000  0.46540000  1
  Si  Si13  1  0.46540000  0.85411000  0.41643000  1
  Si  Si14  1  0.41643000  0.53460000  0.14589000  1
  Si  Si15  1  0.14589000  0.53460000  0.41643000  1
  Si  Si16  1  0.41643000  0.85411000  0.46540000  1
  Si  Si17  1  0.46540000  0.58357000  0.14589000  1
  Si  Si18  1  0.14589000  0.41643000  0.53460000  1
  Si  Si19  1  0.46540000  0.14589000  0.58357000  1
  Si  Si20  1  0.41643000  0.46540000  0.85411000  1
  Si  Si21  1  0.14589000  0.46540000  0.58357000  1
  Si  Si22  1  0.41643000  0.14589000  0.53460000  1
  Si  Si23  1  0.46540000  0.41643000  0.85411000  1
  Si  Si24  1  0.14589000  0.41643000  0.46540000  1
  Si  Si25  1  0.46540000  0.14589000  0.41643000  1
  Si  Si26  1  0.41643000  0.46540000  0.14589000  1
  Si  Si27  1  0.14589000  0.46540000  0.41643000  1
  Si  Si28  1  0.41643000  0.14589000  0.46540000  1
  Si  Si29  1  0.46540000  0.41643000  0.14589000  1
  Si  Si30  1  0.14589000  0.58357000  0.53460000  1
  Si  Si31  1  0.46540000  0.85411000  0.58357000  1
  Si  Si32  1  0.41643000  0.53460000  0.85411000  1
  Si  Si33  1  0.14589000  0.53460000  0.58357000  1
  Si  Si34  1  0.41643000  0.85411000  0.53460000  1
  Si  Si35  1  0.46540000  0.58357000  0.85411000  1
  Si  Si36  1  0.85411000  0.41643000  0.53460000  1
  Si  Si37  1  0.53460000  0.14589000  0.58357000  1
  Si  Si38  1  0.58357000  0.46540000  0.85411000  1
  Si  Si39  1  0.85411000  0.46540000  0.58357000  1
  Si  Si40  1  0.58357000  0.14589000  0.53460000  1
  Si  Si41  1  0.53460000  0.41643000  0.85411000  1
  Si  Si42  1  0.85411000  0.58357000  0.46540000  1
  Si  Si43  1  0.53460000  0.85411000  0.41643000  1
  Si  Si44  1  0.58357000  0.53460000  0.14589000  1
  Si  Si45  1  0.85411000  0.53460000  0.41643000  1
  Si  Si46  1  0.58357000  0.85411000  0.46540000  1
  Si  Si47  1  0.53460000  0.58357000  0.14589000  1
  Si  Si48  1  0.35411000  0.08357000  0.03460000  1
  Si  Si49  1  0.03460000  0.35411000  0.08357000  1
  Si  Si50  1  0.08357000  0.03460000  0.35411000  1
  Si  Si51  1  0.35411000  0.03460000  0.08357000  1
  Si  Si52  1  0.08357000  0.35411000  0.03460000  1
  Si  Si53  1  0.03460000  0.08357000  0.35411000  1
  Si  Si54  1  0.35411000  0.91643000  0.96540000  1
  Si  Si55  1  0.03460000  0.64589000  0.91643000  1
  Si  Si56  1  0.08357000  0.96540000  0.64589000  1
  Si  Si57  1  0.35411000  0.96540000  0.91643000  1
  Si  Si58  1  0.08357000  0.64589000  0.96540000  1
  Si  Si59  1  0.03460000  0.91643000  0.64589000  1
  Si  Si60  1  0.64589000  0.08357000  0.96540000  1
  Si  Si61  1  0.96540000  0.35411000  0.91643000  1
  Si  Si62  1  0.91643000  0.03460000  0.64589000  1
  Si  Si63  1  0.64589000  0.03460000  0.91643000  1
  Si  Si64  1  0.91643000  0.35411000  0.96540000  1
  Si  Si65  1  0.96540000  0.08357000  0.64589000  1
  Si  Si66  1  0.64589000  0.91643000  0.03460000  1
  Si  Si67  1  0.96540000  0.64589000  0.08357000  1
  Si  Si68  1  0.91643000  0.96540000  0.35411000  1
  Si  Si69  1  0.64589000  0.96540000  0.08357000  1
  Si  Si70  1  0.91643000  0.64589000  0.03460000  1
  Si  Si71  1  0.96540000  0.91643000  0.35411000  1
  Si  Si72  1  0.64589000  0.91643000  0.96540000  1
  Si  Si73  1  0.96540000  0.64589000  0.91643000  1
  Si  Si74  1  0.91643000  0.96540000  0.64589000  1
  Si  Si75  1  0.64589000  0.96540000  0.91643000  1
  Si  Si76  1  0.91643000  0.64589000  0.96540000  1
  Si  Si77  1  0.96540000  0.91643000  0.64589000  1
  Si  Si78  1  0.64589000  0.08357000  0.03460000  1
  Si  Si79  1  0.96540000  0.35411000  0.08357000  1
  Si  Si80  1  0.91643000  0.03460000  0.35411000  1
  Si  Si81  1  0.64589000  0.03460000  0.08357000  1
  Si  Si82  1  0.91643000  0.35411000  0.03460000  1
  Si  Si83  1  0.96540000  0.08357000  0.35411000  1
  Si  Si84  1  0.35411000  0.91643000  0.03460000  1
  Si  Si85  1  0.03460000  0.64589000  0.08357000  1
  Si  Si86  1  0.08357000  0.96540000  0.35411000  1
  Si  Si87  1  0.35411000  0.96540000  0.08357000  1
  Si  Si88  1  0.08357000  0.64589000  0.03460000  1
  Si  Si89  1  0.03460000  0.91643000  0.35411000  1
  Si  Si90  1  0.35411000  0.08357000  0.96540000  1
  Si  Si91  1  0.03460000  0.35411000  0.91643000  1
  Si  Si92  1  0.08357000  0.03460000  0.64589000  1
  Si  Si93  1  0.35411000  0.03460000  0.91643000  1
  Si  Si94  1  0.08357000  0.35411000  0.96540000  1
  Si  Si95  1  0.03460000  0.08357000  0.64589000  1
  Si  Si96  1  0.81228000  0.63878000  0.53453000  1
  Si  Si97  1  0.53453000  0.81228000  0.63878000  1
  Si  Si98  1  0.63878000  0.53453000  0.81228000  1
  Si  Si99  1  0.81228000  0.53453000  0.63878000  1
  Si  Si100  1  0.63878000  0.81228000  0.53453000  1
  Si  Si101  1  0.53453000  0.63878000  0.81228000  1
  Si  Si102  1  0.81228000  0.36122000  0.46547000  1
  Si  Si103  1  0.53453000  0.18772000  0.36122000  1
  Si  Si104  1  0.63878000  0.46547000  0.18772000  1
  Si  Si105  1  0.81228000  0.46547000  0.36122000  1
  Si  Si106  1  0.63878000  0.18772000  0.46547000  1
  Si  Si107  1  0.53453000  0.36122000  0.18772000  1
  Si  Si108  1  0.18772000  0.63878000  0.46547000  1
  Si  Si109  1  0.46547000  0.81228000  0.36122000  1
  Si  Si110  1  0.36122000  0.53453000  0.18772000  1
  Si  Si111  1  0.18772000  0.53453000  0.36122000  1
  Si  Si112  1  0.36122000  0.81228000  0.46547000  1
  Si  Si113  1  0.46547000  0.63878000  0.18772000  1
  Si  Si114  1  0.18772000  0.36122000  0.53453000  1
  Si  Si115  1  0.46547000  0.18772000  0.63878000  1
  Si  Si116  1  0.36122000  0.46547000  0.81228000  1
  Si  Si117  1  0.18772000  0.46547000  0.63878000  1
  Si  Si118  1  0.36122000  0.18772000  0.53453000  1
  Si  Si119  1  0.46547000  0.36122000  0.81228000  1
  Si  Si120  1  0.18772000  0.36122000  0.46547000  1
  Si  Si121  1  0.46547000  0.18772000  0.36122000  1
  Si  Si122  1  0.36122000  0.46547000  0.18772000  1
  Si  Si123  1  0.18772000  0.46547000  0.36122000  1
  Si  Si124  1  0.36122000  0.18772000  0.46547000  1
  Si  Si125  1  0.46547000  0.36122000  0.18772000  1
  Si  Si126  1  0.18772000  0.63878000  0.53453000  1
  Si  Si127  1  0.46547000  0.81228000  0.63878000  1
  Si  Si128  1  0.36122000  0.53453000  0.81228000  1
  Si  Si129  1  0.18772000  0.53453000  0.63878000  1
  Si  Si130  1  0.36122000  0.81228000  0.53453000  1
  Si  Si131  1  0.46547000  0.63878000  0.81228000  1
  Si  Si132  1  0.81228000  0.36122000  0.53453000  1
  Si  Si133  1  0.53453000  0.18772000  0.63878000  1
  Si  Si134  1  0.63878000  0.46547000  0.81228000  1
  Si  Si135  1  0.81228000  0.46547000  0.63878000  1
  Si  Si136  1  0.63878000  0.18772000  0.53453000  1
  Si  Si137  1  0.53453000  0.36122000  0.81228000  1
  Si  Si138  1  0.81228000  0.63878000  0.46547000  1
  Si  Si139  1  0.53453000  0.81228000  0.36122000  1
  Si  Si140  1  0.63878000  0.53453000  0.18772000  1
  Si  Si141  1  0.81228000  0.53453000  0.36122000  1
  Si  Si142  1  0.63878000  0.81228000  0.46547000  1
  Si  Si143  1  0.53453000  0.63878000  0.18772000  1
  Si  Si144  1  0.31228000  0.13878000  0.03453000  1
  Si  Si145  1  0.03453000  0.31228000  0.13878000  1
  Si  Si146  1  0.13878000  0.03453000  0.31228000  1
  Si  Si147  1  0.31228000  0.03453000  0.13878000  1
  Si  Si148  1  0.13878000  0.31228000  0.03453000  1
  Si  Si149  1  0.03453000  0.13878000  0.31228000  1
  Si  Si150  1  0.31228000  0.86122000  0.96547000  1
  Si  Si151  1  0.03453000  0.68772000  0.86122000  1
  Si  Si152  1  0.13878000  0.96547000  0.68772000  1
  Si  Si153  1  0.31228000  0.96547000  0.86122000  1
  Si  Si154  1  0.13878000  0.68772000  0.96547000  1
  Si  Si155  1  0.03453000  0.86122000  0.68772000  1
  Si  Si156  1  0.68772000  0.13878000  0.96547000  1
  Si  Si157  1  0.96547000  0.31228000  0.86122000  1
  Si  Si158  1  0.86122000  0.03453000  0.68772000  1
  Si  Si159  1  0.68772000  0.03453000  0.86122000  1
  Si  Si160  1  0.86122000  0.31228000  0.96547000  1
  Si  Si161  1  0.96547000  0.13878000  0.68772000  1
  Si  Si162  1  0.68772000  0.86122000  0.03453000  1
  Si  Si163  1  0.96547000  0.68772000  0.13878000  1
  Si  Si164  1  0.86122000  0.96547000  0.31228000  1
  Si  Si165  1  0.68772000  0.96547000  0.13878000  1
  Si  Si166  1  0.86122000  0.68772000  0.03453000  1
  Si  Si167  1  0.96547000  0.86122000  0.31228000  1
  Si  Si168  1  0.68772000  0.86122000  0.96547000  1
  Si  Si169  1  0.96547000  0.68772000  0.86122000  1
  Si  Si170  1  0.86122000  0.96547000  0.68772000  1
  Si  Si171  1  0.68772000  0.96547000  0.86122000  1
  Si  Si172  1  0.86122000  0.68772000  0.96547000  1
  Si  Si173  1  0.96547000  0.86122000  0.68772000  1
  Si  Si174  1  0.68772000  0.13878000  0.03453000  1
  Si  Si175  1  0.96547000  0.31228000  0.13878000  1
  Si  Si176  1  0.86122000  0.03453000  0.31228000  1
  Si  Si177  1  0.68772000  0.03453000  0.13878000  1
  Si  Si178  1  0.86122000  0.31228000  0.03453000  1
  Si  Si179  1  0.96547000  0.13878000  0.31228000  1
  Si  Si180  1  0.31228000  0.86122000  0.03453000  1
  Si  Si181  1  0.03453000  0.68772000  0.13878000  1
  Si  Si182  1  0.13878000  0.96547000  0.31228000  1
  Si  Si183  1  0.31228000  0.96547000  0.13878000  1
  Si  Si184  1  0.13878000  0.68772000  0.03453000  1
  Si  Si185  1  0.03453000  0.86122000  0.31228000  1
  Si  Si186  1  0.31228000  0.13878000  0.96547000  1
  Si  Si187  1  0.03453000  0.31228000  0.86122000  1
  Si  Si188  1  0.13878000  0.03453000  0.68772000  1
  Si  Si189  1  0.31228000  0.03453000  0.86122000  1
  Si  Si190  1  0.13878000  0.31228000  0.96547000  1
  Si  Si191  1  0.03453000  0.13878000  0.68772000  1
  Si  Si192  1  0.74280000  0.63919000  0.53447000  1
  Si  Si193  1  0.53447000  0.74280000  0.63919000  1
  Si  Si194  1  0.63919000  0.53447000  0.74280000  1
  Si  Si195  1  0.74280000  0.53447000  0.63919000  1
  Si  Si196  1  0.63919000  0.74280000  0.53447000  1
  Si  Si197  1  0.53447000  0.63919000  0.74280000  1
  Si  Si198  1  0.74280000  0.36081000  0.46553000  1
  Si  Si199  1  0.53447000  0.25720000  0.36081000  1
  Si  Si200  1  0.63919000  0.46553000  0.25720000  1
  Si  Si201  1  0.74280000  0.46553000  0.36081000  1
  Si  Si202  1  0.63919000  0.25720000  0.46553000  1
  Si  Si203  1  0.53447000  0.36081000  0.25720000  1
  Si  Si204  1  0.25720000  0.63919000  0.46553000  1
  Si  Si205  1  0.46553000  0.74280000  0.36081000  1
  Si  Si206  1  0.36081000  0.53447000  0.25720000  1
  Si  Si207  1  0.25720000  0.53447000  0.36081000  1
  Si  Si208  1  0.36081000  0.74280000  0.46553000  1
  Si  Si209  1  0.46553000  0.63919000  0.25720000  1
  Si  Si210  1  0.25720000  0.36081000  0.53447000  1
  Si  Si211  1  0.46553000  0.25720000  0.63919000  1
  Si  Si212  1  0.36081000  0.46553000  0.74280000  1
  Si  Si213  1  0.25720000  0.46553000  0.63919000  1
  Si  Si214  1  0.36081000  0.25720000  0.53447000  1
  Si  Si215  1  0.46553000  0.36081000  0.74280000  1
  Si  Si216  1  0.25720000  0.36081000  0.46553000  1
  Si  Si217  1  0.46553000  0.25720000  0.36081000  1
  Si  Si218  1  0.36081000  0.46553000  0.25720000  1
  Si  Si219  1  0.25720000  0.46553000  0.36081000  1
  Si  Si220  1  0.36081000  0.25720000  0.46553000  1
  Si  Si221  1  0.46553000  0.36081000  0.25720000  1
  Si  Si222  1  0.25720000  0.63919000  0.53447000  1
  Si  Si223  1  0.46553000  0.74280000  0.63919000  1
  Si  Si224  1  0.36081000  0.53447000  0.74280000  1
  Si  Si225  1  0.25720000  0.53447000  0.63919000  1
  Si  Si226  1  0.36081000  0.74280000  0.53447000  1
  Si  Si227  1  0.46553000  0.63919000  0.74280000  1
  Si  Si228  1  0.74280000  0.36081000  0.53447000  1
  Si  Si229  1  0.53447000  0.25720000  0.63919000  1
  Si  Si230  1  0.63919000  0.46553000  0.74280000  1
  Si  Si231  1  0.74280000  0.46553000  0.63919000  1
  Si  Si232  1  0.63919000  0.25720000  0.53447000  1
  Si  Si233  1  0.53447000  0.36081000  0.74280000  1
  Si  Si234  1  0.74280000  0.63919000  0.46553000  1
  Si  Si235  1  0.53447000  0.74280000  0.36081000  1
  Si  Si236  1  0.63919000  0.53447000  0.25720000  1
  Si  Si237  1  0.74280000  0.53447000  0.36081000  1
  Si  Si238  1  0.63919000  0.74280000  0.46553000  1
  Si  Si239  1  0.53447000  0.63919000  0.25720000  1
  Si  Si240  1  0.24280000  0.13919000  0.03447000  1
  Si  Si241  1  0.03447000  0.24280000  0.13919000  1
  Si  Si242  1  0.13919000  0.03447000  0.24280000  1
  Si  Si243  1  0.24280000  0.03447000  0.13919000  1
  Si  Si244  1  0.13919000  0.24280000  0.03447000  1
  Si  Si245  1  0.03447000  0.13919000  0.24280000  1
  Si  Si246  1  0.24280000  0.86081000  0.96553000  1
  Si  Si247  1  0.03447000  0.75720000  0.86081000  1
  Si  Si248  1  0.13919000  0.96553000  0.75720000  1
  Si  Si249  1  0.24280000  0.96553000  0.86081000  1
  Si  Si250  1  0.13919000  0.75720000  0.96553000  1
  Si  Si251  1  0.03447000  0.86081000  0.75720000  1
  Si  Si252  1  0.75720000  0.13919000  0.96553000  1
  Si  Si253  1  0.96553000  0.24280000  0.86081000  1
  Si  Si254  1  0.86081000  0.03447000  0.75720000  1
  Si  Si255  1  0.75720000  0.03447000  0.86081000  1
  Si  Si256  1  0.86081000  0.24280000  0.96553000  1
  Si  Si257  1  0.96553000  0.13919000  0.75720000  1
  Si  Si258  1  0.75720000  0.86081000  0.03447000  1
  Si  Si259  1  0.96553000  0.75720000  0.13919000  1
  Si  Si260  1  0.86081000  0.96553000  0.24280000  1
  Si  Si261  1  0.75720000  0.96553000  0.13919000  1
  Si  Si262  1  0.86081000  0.75720000  0.03447000  1
  Si  Si263  1  0.96553000  0.86081000  0.24280000  1
  Si  Si264  1  0.75720000  0.86081000  0.96553000  1
  Si  Si265  1  0.96553000  0.75720000  0.86081000  1
  Si  Si266  1  0.86081000  0.96553000  0.75720000  1
  Si  Si267  1  0.75720000  0.96553000  0.86081000  1
  Si  Si268  1  0.86081000  0.75720000  0.96553000  1
  Si  Si269  1  0.96553000  0.86081000  0.75720000  1
  Si  Si270  1  0.75720000  0.13919000  0.03447000  1
  Si  Si271  1  0.96553000  0.24280000  0.13919000  1
  Si  Si272  1  0.86081000  0.03447000  0.24280000  1
  Si  Si273  1  0.75720000  0.03447000  0.13919000  1
  Si  Si274  1  0.86081000  0.24280000  0.03447000  1
  Si  Si275  1  0.96553000  0.13919000  0.24280000  1
  Si  Si276  1  0.24280000  0.86081000  0.03447000  1
  Si  Si277  1  0.03447000  0.75720000  0.13919000  1
  Si  Si278  1  0.13919000  0.96553000  0.24280000  1
  Si  Si279  1  0.24280000  0.96553000  0.13919000  1
  Si  Si280  1  0.13919000  0.75720000  0.03447000  1
  Si  Si281  1  0.03447000  0.86081000  0.24280000  1
  Si  Si282  1  0.24280000  0.13919000  0.96553000  1
  Si  Si283  1  0.03447000  0.24280000  0.86081000  1
  Si  Si284  1  0.13919000  0.03447000  0.75720000  1
  Si  Si285  1  0.24280000  0.03447000  0.86081000  1
  Si  Si286  1  0.13919000  0.24280000  0.96553000  1
  Si  Si287  1  0.03447000  0.13919000  0.75720000  1
  Si  Si288  1  0.70125000  0.58342000  0.53455000  1
  Si  Si289  1  0.53455000  0.70125000  0.58342000  1
  Si  Si290  1  0.58342000  0.53455000  0.70125000  1
  Si  Si291  1  0.70125000  0.53455000  0.58342000  1
  Si  Si292  1  0.58342000  0.70125000  0.53455000  1
  Si  Si293  1  0.53455000  0.58342000  0.70125000  1
  Si  Si294  1  0.70125000  0.41658000  0.46545000  1
  Si  Si295  1  0.53455000  0.29875000  0.41658000  1
  Si  Si296  1  0.58342000  0.46545000  0.29875000  1
  Si  Si297  1  0.70125000  0.46545000  0.41658000  1
  Si  Si298  1  0.58342000  0.29875000  0.46545000  1
  Si  Si299  1  0.53455000  0.41658000  0.29875000  1
  Si  Si300  1  0.29875000  0.58342000  0.46545000  1
  Si  Si301  1  0.46545000  0.70125000  0.41658000  1
  Si  Si302  1  0.41658000  0.53455000  0.29875000  1
  Si  Si303  1  0.29875000  0.53455000  0.41658000  1
  Si  Si304  1  0.41658000  0.70125000  0.46545000  1
  Si  Si305  1  0.46545000  0.58342000  0.29875000  1
  Si  Si306  1  0.29875000  0.41658000  0.53455000  1
  Si  Si307  1  0.46545000  0.29875000  0.58342000  1
  Si  Si308  1  0.41658000  0.46545000  0.70125000  1
  Si  Si309  1  0.29875000  0.46545000  0.58342000  1
  Si  Si310  1  0.41658000  0.29875000  0.53455000  1
  Si  Si311  1  0.46545000  0.41658000  0.70125000  1
  Si  Si312  1  0.29875000  0.41658000  0.46545000  1
  Si  Si313  1  0.46545000  0.29875000  0.41658000  1
  Si  Si314  1  0.41658000  0.46545000  0.29875000  1
  Si  Si315  1  0.29875000  0.46545000  0.41658000  1
  Si  Si316  1  0.41658000  0.29875000  0.46545000  1
  Si  Si317  1  0.46545000  0.41658000  0.29875000  1
  Si  Si318  1  0.29875000  0.58342000  0.53455000  1
  Si  Si319  1  0.46545000  0.70125000  0.58342000  1
  Si  Si320  1  0.41658000  0.53455000  0.70125000  1
  Si  Si321  1  0.29875000  0.53455000  0.58342000  1
  Si  Si322  1  0.41658000  0.70125000  0.53455000  1
  Si  Si323  1  0.46545000  0.58342000  0.70125000  1
  Si  Si324  1  0.70125000  0.41658000  0.53455000  1
  Si  Si325  1  0.53455000  0.29875000  0.58342000  1
  Si  Si326  1  0.58342000  0.46545000  0.70125000  1
  Si  Si327  1  0.70125000  0.46545000  0.58342000  1
  Si  Si328  1  0.58342000  0.29875000  0.53455000  1
  Si  Si329  1  0.53455000  0.41658000  0.70125000  1
  Si  Si330  1  0.70125000  0.58342000  0.46545000  1
  Si  Si331  1  0.53455000  0.70125000  0.41658000  1
  Si  Si332  1  0.58342000  0.53455000  0.29875000  1
  Si  Si333  1  0.70125000  0.53455000  0.41658000  1
  Si  Si334  1  0.58342000  0.70125000  0.46545000  1
  Si  Si335  1  0.53455000  0.58342000  0.29875000  1
  Si  Si336  1  0.20125000  0.08342000  0.03455000  1
  Si  Si337  1  0.03455000  0.20125000  0.08342000  1
  Si  Si338  1  0.08342000  0.03455000  0.20125000  1
  Si  Si339  1  0.20125000  0.03455000  0.08342000  1
  Si  Si340  1  0.08342000  0.20125000  0.03455000  1
  Si  Si341  1  0.03455000  0.08342000  0.20125000  1
  Si  Si342  1  0.20125000  0.91658000  0.96545000  1
  Si  Si343  1  0.03455000  0.79875000  0.91658000  1
  Si  Si344  1  0.08342000  0.96545000  0.79875000  1
  Si  Si345  1  0.20125000  0.96545000  0.91658000  1
  Si  Si346  1  0.08342000  0.79875000  0.96545000  1
  Si  Si347  1  0.03455000  0.91658000  0.79875000  1
  Si  Si348  1  0.79875000  0.08342000  0.96545000  1
  Si  Si349  1  0.96545000  0.20125000  0.91658000  1
  Si  Si350  1  0.91658000  0.03455000  0.79875000  1
  Si  Si351  1  0.79875000  0.03455000  0.91658000  1
  Si  Si352  1  0.91658000  0.20125000  0.96545000  1
  Si  Si353  1  0.96545000  0.08342000  0.79875000  1
  Si  Si354  1  0.79875000  0.91658000  0.03455000  1
  Si  Si355  1  0.96545000  0.79875000  0.08342000  1
  Si  Si356  1  0.91658000  0.96545000  0.20125000  1
  Si  Si357  1  0.79875000  0.96545000  0.08342000  1
  Si  Si358  1  0.91658000  0.79875000  0.03455000  1
  Si  Si359  1  0.96545000  0.91658000  0.20125000  1
  Si  Si360  1  0.79875000  0.91658000  0.96545000  1
  Si  Si361  1  0.96545000  0.79875000  0.91658000  1
  Si  Si362  1  0.91658000  0.96545000  0.79875000  1
  Si  Si363  1  0.79875000  0.96545000  0.91658000  1
  Si  Si364  1  0.91658000  0.79875000  0.96545000  1
  Si  Si365  1  0.96545000  0.91658000  0.79875000  1
  Si  Si366  1  0.79875000  0.08342000  0.03455000  1
  Si  Si367  1  0.96545000  0.20125000  0.08342000  1
  Si  Si368  1  0.91658000  0.03455000  0.20125000  1
  Si  Si369  1  0.79875000  0.03455000  0.08342000  1
  Si  Si370  1  0.91658000  0.20125000  0.03455000  1
  Si  Si371  1  0.96545000  0.08342000  0.20125000  1
  Si  Si372  1  0.20125000  0.91658000  0.03455000  1
  Si  Si373  1  0.03455000  0.79875000  0.08342000  1
  Si  Si374  1  0.08342000  0.96545000  0.20125000  1
  Si  Si375  1  0.20125000  0.96545000  0.08342000  1
  Si  Si376  1  0.08342000  0.79875000  0.03455000  1
  Si  Si377  1  0.03455000  0.91658000  0.20125000  1
  Si  Si378  1  0.20125000  0.08342000  0.96545000  1
  Si  Si379  1  0.03455000  0.20125000  0.91658000  1
  Si  Si380  1  0.08342000  0.03455000  0.79875000  1
  Si  Si381  1  0.20125000  0.03455000  0.91658000  1
  Si  Si382  1  0.08342000  0.20125000  0.96545000  1
  Si  Si383  1  0.03455000  0.08342000  0.79875000  1
  Si  Si384  1  0.63222000  0.58346000  0.53455000  1
  Si  Si385  1  0.53455000  0.63222000  0.58346000  1
  Si  Si386  1  0.58346000  0.53455000  0.63222000  1
  Si  Si387  1  0.63222000  0.53455000  0.58346000  1
  Si  Si388  1  0.58346000  0.63222000  0.53455000  1
  Si  Si389  1  0.53455000  0.58346000  0.63222000  1
  Si  Si390  1  0.63222000  0.41654000  0.46545000  1
  Si  Si391  1  0.53455000  0.36778000  0.41654000  1
  Si  Si392  1  0.58346000  0.46545000  0.36778000  1
  Si  Si393  1  0.63222000  0.46545000  0.41654000  1
  Si  Si394  1  0.58346000  0.36778000  0.46545000  1
  Si  Si395  1  0.53455000  0.41654000  0.36778000  1
  Si  Si396  1  0.36778000  0.58346000  0.46545000  1
  Si  Si397  1  0.46545000  0.63222000  0.41654000  1
  Si  Si398  1  0.41654000  0.53455000  0.36778000  1
  Si  Si399  1  0.36778000  0.53455000  0.41654000  1
  Si  Si400  1  0.41654000  0.63222000  0.46545000  1
  Si  Si401  1  0.46545000  0.58346000  0.36778000  1
  Si  Si402  1  0.36778000  0.41654000  0.53455000  1
  Si  Si403  1  0.46545000  0.36778000  0.58346000  1
  Si  Si404  1  0.41654000  0.46545000  0.63222000  1
  Si  Si405  1  0.36778000  0.46545000  0.58346000  1
  Si  Si406  1  0.41654000  0.36778000  0.53455000  1
  Si  Si407  1  0.46545000  0.41654000  0.63222000  1
  Si  Si408  1  0.36778000  0.41654000  0.46545000  1
  Si  Si409  1  0.46545000  0.36778000  0.41654000  1
  Si  Si410  1  0.41654000  0.46545000  0.36778000  1
  Si  Si411  1  0.36778000  0.46545000  0.41654000  1
  Si  Si412  1  0.41654000  0.36778000  0.46545000  1
  Si  Si413  1  0.46545000  0.41654000  0.36778000  1
  Si  Si414  1  0.36778000  0.58346000  0.53455000  1
  Si  Si415  1  0.46545000  0.63222000  0.58346000  1
  Si  Si416  1  0.41654000  0.53455000  0.63222000  1
  Si  Si417  1  0.36778000  0.53455000  0.58346000  1
  Si  Si418  1  0.41654000  0.63222000  0.53455000  1
  Si  Si419  1  0.46545000  0.58346000  0.63222000  1
  Si  Si420  1  0.63222000  0.41654000  0.53455000  1
  Si  Si421  1  0.53455000  0.36778000  0.58346000  1
  Si  Si422  1  0.58346000  0.46545000  0.63222000  1
  Si  Si423  1  0.63222000  0.46545000  0.58346000  1
  Si  Si424  1  0.58346000  0.36778000  0.53455000  1
  Si  Si425  1  0.53455000  0.41654000  0.63222000  1
  Si  Si426  1  0.63222000  0.58346000  0.46545000  1
  Si  Si427  1  0.53455000  0.63222000  0.41654000  1
  Si  Si428  1  0.58346000  0.53455000  0.36778000  1
  Si  Si429  1  0.63222000  0.53455000  0.41654000  1
  Si  Si430  1  0.58346000  0.63222000  0.46545000  1
  Si  Si431  1  0.53455000  0.58346000  0.36778000  1
  Si  Si432  1  0.13222000  0.08346000  0.03455000  1
  Si  Si433  1  0.03455000  0.13222000  0.08346000  1
  Si  Si434  1  0.08346000  0.03455000  0.13222000  1
  Si  Si435  1  0.13222000  0.03455000  0.08346000  1
  Si  Si436  1  0.08346000  0.13222000  0.03455000  1
  Si  Si437  1  0.03455000  0.08346000  0.13222000  1
  Si  Si438  1  0.13222000  0.91654000  0.96545000  1
  Si  Si439  1  0.03455000  0.86778000  0.91654000  1
  Si  Si440  1  0.08346000  0.96545000  0.86778000  1
  Si  Si441  1  0.13222000  0.96545000  0.91654000  1
  Si  Si442  1  0.08346000  0.86778000  0.96545000  1
  Si  Si443  1  0.03455000  0.91654000  0.86778000  1
  Si  Si444  1  0.86778000  0.08346000  0.96545000  1
  Si  Si445  1  0.96545000  0.13222000  0.91654000  1
  Si  Si446  1  0.91654000  0.03455000  0.86778000  1
  Si  Si447  1  0.86778000  0.03455000  0.91654000  1
  Si  Si448  1  0.91654000  0.13222000  0.96545000  1
  Si  Si449  1  0.96545000  0.08346000  0.86778000  1
  Si  Si450  1  0.86778000  0.91654000  0.03455000  1
  Si  Si451  1  0.96545000  0.86778000  0.08346000  1
  Si  Si452  1  0.91654000  0.96545000  0.13222000  1
  Si  Si453  1  0.86778000  0.96545000  0.08346000  1
  Si  Si454  1  0.91654000  0.86778000  0.03455000  1
  Si  Si455  1  0.96545000  0.91654000  0.13222000  1
  Si  Si456  1  0.86778000  0.91654000  0.96545000  1
  Si  Si457  1  0.96545000  0.86778000  0.91654000  1
  Si  Si458  1  0.91654000  0.96545000  0.86778000  1
  Si  Si459  1  0.86778000  0.96545000  0.91654000  1
  Si  Si460  1  0.91654000  0.86778000  0.96545000  1
  Si  Si461  1  0.96545000  0.91654000  0.86778000  1
  Si  Si462  1  0.86778000  0.08346000  0.03455000  1
  Si  Si463  1  0.96545000  0.13222000  0.08346000  1
  Si  Si464  1  0.91654000  0.03455000  0.13222000  1
  Si  Si465  1  0.86778000  0.03455000  0.08346000  1
  Si  Si466  1  0.91654000  0.13222000  0.03455000  1
  Si  Si467  1  0.96545000  0.08346000  0.13222000  1
  Si  Si468  1  0.13222000  0.91654000  0.03455000  1
  Si  Si469  1  0.03455000  0.86778000  0.08346000  1
  Si  Si470  1  0.08346000  0.96545000  0.13222000  1
  Si  Si471  1  0.13222000  0.96545000  0.08346000  1
  Si  Si472  1  0.08346000  0.86778000  0.03455000  1
  Si  Si473  1  0.03455000  0.91654000  0.13222000  1
  Si  Si474  1  0.13222000  0.08346000  0.96545000  1
  Si  Si475  1  0.03455000  0.13222000  0.91654000  1
  Si  Si476  1  0.08346000  0.03455000  0.86778000  1
  Si  Si477  1  0.13222000  0.03455000  0.91654000  1
  Si  Si478  1  0.08346000  0.13222000  0.96545000  1
  Si  Si479  1  0.03455000  0.08346000  0.86778000  1
  Si  Si480  1  0.57731000  0.08359000  0.03465000  1
  Si  Si481  1  0.03465000  0.57731000  0.08359000  1
  Si  Si482  1  0.08359000  0.03465000  0.57731000  1
  Si  Si483  1  0.57731000  0.03465000  0.08359000  1
  Si  Si484  1  0.08359000  0.57731000  0.03465000  1
  Si  Si485  1  0.03465000  0.08359000  0.57731000  1
  Si  Si486  1  0.57731000  0.91641000  0.96535000  1
  Si  Si487  1  0.03465000  0.42269000  0.91641000  1
  Si  Si488  1  0.08359000  0.96535000  0.42269000  1
  Si  Si489  1  0.57731000  0.96535000  0.91641000  1
  Si  Si490  1  0.08359000  0.42269000  0.96535000  1
  Si  Si491  1  0.03465000  0.91641000  0.42269000  1
  Si  Si492  1  0.42269000  0.08359000  0.96535000  1
  Si  Si493  1  0.96535000  0.57731000  0.91641000  1
  Si  Si494  1  0.91641000  0.03465000  0.42269000  1
  Si  Si495  1  0.42269000  0.03465000  0.91641000  1
  Si  Si496  1  0.91641000  0.57731000  0.96535000  1
  Si  Si497  1  0.96535000  0.08359000  0.42269000  1
  Si  Si498  1  0.42269000  0.91641000  0.03465000  1
  Si  Si499  1  0.96535000  0.42269000  0.08359000  1
  Si  Si500  1  0.91641000  0.96535000  0.57731000  1
  Si  Si501  1  0.42269000  0.96535000  0.08359000  1
  Si  Si502  1  0.91641000  0.42269000  0.03465000  1
  Si  Si503  1  0.96535000  0.91641000  0.57731000  1
  Si  Si504  1  0.42269000  0.91641000  0.96535000  1
  Si  Si505  1  0.96535000  0.42269000  0.91641000  1
  Si  Si506  1  0.91641000  0.96535000  0.42269000  1
  Si  Si507  1  0.42269000  0.96535000  0.91641000  1
  Si  Si508  1  0.91641000  0.42269000  0.96535000  1
  Si  Si509  1  0.96535000  0.91641000  0.42269000  1
  Si  Si510  1  0.42269000  0.08359000  0.03465000  1
  Si  Si511  1  0.96535000  0.57731000  0.08359000  1
  Si  Si512  1  0.91641000  0.03465000  0.57731000  1
  Si  Si513  1  0.42269000  0.03465000  0.08359000  1
  Si  Si514  1  0.91641000  0.57731000  0.03465000  1
  Si  Si515  1  0.96535000  0.08359000  0.57731000  1
  Si  Si516  1  0.57731000  0.91641000  0.03465000  1
  Si  Si517  1  0.03465000  0.42269000  0.08359000  1
  Si  Si518  1  0.08359000  0.96535000  0.57731000  1
  Si  Si519  1  0.57731000  0.96535000  0.08359000  1
  Si  Si520  1  0.08359000  0.42269000  0.03465000  1
  Si  Si521  1  0.03465000  0.91641000  0.57731000  1
  Si  Si522  1  0.57731000  0.08359000  0.96535000  1
  Si  Si523  1  0.03465000  0.57731000  0.91641000  1
  Si  Si524  1  0.08359000  0.03465000  0.42269000  1
  Si  Si525  1  0.57731000  0.03465000  0.91641000  1
  Si  Si526  1  0.08359000  0.57731000  0.96535000  1
  Si  Si527  1  0.03465000  0.08359000  0.42269000  1
  Si  Si528  1  0.07731000  0.58359000  0.53465000  1
  Si  Si529  1  0.53465000  0.07731000  0.58359000  1
  Si  Si530  1  0.58359000  0.53465000  0.07731000  1
  Si  Si531  1  0.07731000  0.53465000  0.58359000  1
  Si  Si532  1  0.58359000  0.07731000  0.53465000  1
  Si  Si533  1  0.53465000  0.58359000  0.07731000  1
  Si  Si534  1  0.07731000  0.41641000  0.46535000  1
  Si  Si535  1  0.53465000  0.92269000  0.41641000  1
  Si  Si536  1  0.58359000  0.46535000  0.92269000  1
  Si  Si537  1  0.07731000  0.46535000  0.41641000  1
  Si  Si538  1  0.58359000  0.92269000  0.46535000  1
  Si  Si539  1  0.53465000  0.41641000  0.92269000  1
  Si  Si540  1  0.92269000  0.58359000  0.46535000  1
  Si  Si541  1  0.46535000  0.07731000  0.41641000  1
  Si  Si542  1  0.41641000  0.53465000  0.92269000  1
  Si  Si543  1  0.92269000  0.53465000  0.41641000  1
  Si  Si544  1  0.41641000  0.07731000  0.46535000  1
  Si  Si545  1  0.46535000  0.58359000  0.92269000  1
  Si  Si546  1  0.92269000  0.41641000  0.53465000  1
  Si  Si547  1  0.46535000  0.92269000  0.58359000  1
  Si  Si548  1  0.41641000  0.46535000  0.07731000  1
  Si  Si549  1  0.92269000  0.46535000  0.58359000  1
  Si  Si550  1  0.41641000  0.92269000  0.53465000  1
  Si  Si551  1  0.46535000  0.41641000  0.07731000  1
  Si  Si552  1  0.92269000  0.41641000  0.46535000  1
  Si  Si553  1  0.46535000  0.92269000  0.41641000  1
  Si  Si554  1  0.41641000  0.46535000  0.92269000  1
  Si  Si555  1  0.92269000  0.46535000  0.41641000  1
  Si  Si556  1  0.41641000  0.92269000  0.46535000  1
  Si  Si557  1  0.46535000  0.41641000  0.92269000  1
  Si  Si558  1  0.92269000  0.58359000  0.53465000  1
  Si  Si559  1  0.46535000  0.07731000  0.58359000  1
  Si  Si560  1  0.41641000  0.53465000  0.07731000  1
  Si  Si561  1  0.92269000  0.53465000  0.58359000  1
  Si  Si562  1  0.41641000  0.07731000  0.53465000  1
  Si  Si563  1  0.46535000  0.58359000  0.07731000  1
  Si  Si564  1  0.07731000  0.41641000  0.53465000  1
  Si  Si565  1  0.53465000  0.92269000  0.58359000  1
  Si  Si566  1  0.58359000  0.46535000  0.07731000  1
  Si  Si567  1  0.07731000  0.46535000  0.58359000  1
  Si  Si568  1  0.58359000  0.92269000  0.53465000  1
  Si  Si569  1  0.53465000  0.41641000  0.07731000  1
  Si  Si570  1  0.07731000  0.58359000  0.46535000  1
  Si  Si571  1  0.53465000  0.07731000  0.41641000  1
  Si  Si572  1  0.58359000  0.53465000  0.92269000  1
  Si  Si573  1  0.07731000  0.53465000  0.41641000  1
  Si  Si574  1  0.58359000  0.07731000  0.46535000  1
  Si  Si575  1  0.53465000  0.58359000  0.92269000  1
  Si  Si576  1  0.53449000  0.13783000  0.03451000  1
  Si  Si577  1  0.03451000  0.53449000  0.13783000  1
  Si  Si578  1  0.13783000  0.03451000  0.53449000  1
  Si  Si579  1  0.53449000  0.03451000  0.13783000  1
  Si  Si580  1  0.13783000  0.53449000  0.03451000  1
  Si  Si581  1  0.03451000  0.13783000  0.53449000  1
  Si  Si582  1  0.53449000  0.86217000  0.96549000  1
  Si  Si583  1  0.03451000  0.46551000  0.86217000  1
  Si  Si584  1  0.13783000  0.96549000  0.46551000  1
  Si  Si585  1  0.53449000  0.96549000  0.86217000  1
  Si  Si586  1  0.13783000  0.46551000  0.96549000  1
  Si  Si587  1  0.03451000  0.86217000  0.46551000  1
  Si  Si588  1  0.46551000  0.13783000  0.96549000  1
  Si  Si589  1  0.96549000  0.53449000  0.86217000  1
  Si  Si590  1  0.86217000  0.03451000  0.46551000  1
  Si  Si591  1  0.46551000  0.03451000  0.86217000  1
  Si  Si592  1  0.86217000  0.53449000  0.96549000  1
  Si  Si593  1  0.96549000  0.13783000  0.46551000  1
  Si  Si594  1  0.46551000  0.86217000  0.03451000  1
  Si  Si595  1  0.96549000  0.46551000  0.13783000  1
  Si  Si596  1  0.86217000  0.96549000  0.53449000  1
  Si  Si597  1  0.46551000  0.96549000  0.13783000  1
  Si  Si598  1  0.86217000  0.46551000  0.03451000  1
  Si  Si599  1  0.96549000  0.86217000  0.53449000  1
  Si  Si600  1  0.46551000  0.86217000  0.96549000  1
  Si  Si601  1  0.96549000  0.46551000  0.86217000  1
  Si  Si602  1  0.86217000  0.96549000  0.46551000  1
  Si  Si603  1  0.46551000  0.96549000  0.86217000  1
  Si  Si604  1  0.86217000  0.46551000  0.96549000  1
  Si  Si605  1  0.96549000  0.86217000  0.46551000  1
  Si  Si606  1  0.46551000  0.13783000  0.03451000  1
  Si  Si607  1  0.96549000  0.53449000  0.13783000  1
  Si  Si608  1  0.86217000  0.03451000  0.53449000  1
  Si  Si609  1  0.46551000  0.03451000  0.13783000  1
  Si  Si610  1  0.86217000  0.53449000  0.03451000  1
  Si  Si611  1  0.96549000  0.13783000  0.53449000  1
  Si  Si612  1  0.53449000  0.86217000  0.03451000  1
  Si  Si613  1  0.03451000  0.46551000  0.13783000  1
  Si  Si614  1  0.13783000  0.96549000  0.53449000  1
  Si  Si615  1  0.53449000  0.96549000  0.13783000  1
  Si  Si616  1  0.13783000  0.46551000  0.03451000  1
  Si  Si617  1  0.03451000  0.86217000  0.53449000  1
  Si  Si618  1  0.53449000  0.13783000  0.96549000  1
  Si  Si619  1  0.03451000  0.53449000  0.86217000  1
  Si  Si620  1  0.13783000  0.03451000  0.46551000  1
  Si  Si621  1  0.53449000  0.03451000  0.86217000  1
  Si  Si622  1  0.13783000  0.53449000  0.96549000  1
  Si  Si623  1  0.03451000  0.13783000  0.46551000  1
  Si  Si624  1  0.03449000  0.63783000  0.53451000  1
  Si  Si625  1  0.53451000  0.03449000  0.63783000  1
  Si  Si626  1  0.63783000  0.53451000  0.03449000  1
  Si  Si627  1  0.03449000  0.53451000  0.63783000  1
  Si  Si628  1  0.63783000  0.03449000  0.53451000  1
  Si  Si629  1  0.53451000  0.63783000  0.03449000  1
  Si  Si630  1  0.03449000  0.36217000  0.46549000  1
  Si  Si631  1  0.53451000  0.96551000  0.36217000  1
  Si  Si632  1  0.63783000  0.46549000  0.96551000  1
  Si  Si633  1  0.03449000  0.46549000  0.36217000  1
  Si  Si634  1  0.63783000  0.96551000  0.46549000  1
  Si  Si635  1  0.53451000  0.36217000  0.96551000  1
  Si  Si636  1  0.96551000  0.63783000  0.46549000  1
  Si  Si637  1  0.46549000  0.03449000  0.36217000  1
  Si  Si638  1  0.36217000  0.53451000  0.96551000  1
  Si  Si639  1  0.96551000  0.53451000  0.36217000  1
  Si  Si640  1  0.36217000  0.03449000  0.46549000  1
  Si  Si641  1  0.46549000  0.63783000  0.96551000  1
  Si  Si642  1  0.96551000  0.36217000  0.53451000  1
  Si  Si643  1  0.46549000  0.96551000  0.63783000  1
  Si  Si644  1  0.36217000  0.46549000  0.03449000  1
  Si  Si645  1  0.96551000  0.46549000  0.63783000  1
  Si  Si646  1  0.36217000  0.96551000  0.53451000  1
  Si  Si647  1  0.46549000  0.36217000  0.03449000  1
  Si  Si648  1  0.96551000  0.36217000  0.46549000  1
  Si  Si649  1  0.46549000  0.96551000  0.36217000  1
  Si  Si650  1  0.36217000  0.46549000  0.96551000  1
  Si  Si651  1  0.96551000  0.46549000  0.36217000  1
  Si  Si652  1  0.36217000  0.96551000  0.46549000  1
  Si  Si653  1  0.46549000  0.36217000  0.96551000  1
  Si  Si654  1  0.96551000  0.63783000  0.53451000  1
  Si  Si655  1  0.46549000  0.03449000  0.63783000  1
  Si  Si656  1  0.36217000  0.53451000  0.03449000  1
  Si  Si657  1  0.96551000  0.53451000  0.63783000  1
  Si  Si658  1  0.36217000  0.03449000  0.53451000  1
  Si  Si659  1  0.46549000  0.63783000  0.03449000  1
  Si  Si660  1  0.03449000  0.36217000  0.53451000  1
  Si  Si661  1  0.53451000  0.96551000  0.63783000  1
  Si  Si662  1  0.63783000  0.46549000  0.03449000  1
  Si  Si663  1  0.03449000  0.46549000  0.63783000  1
  Si  Si664  1  0.63783000  0.96551000  0.53451000  1
  Si  Si665  1  0.53451000  0.36217000  0.03449000  1
  Si  Si666  1  0.03449000  0.63783000  0.46549000  1
  Si  Si667  1  0.53451000  0.03449000  0.36217000  1
  Si  Si668  1  0.63783000  0.53451000  0.96551000  1
  Si  Si669  1  0.03449000  0.53451000  0.36217000  1
  Si  Si670  1  0.63783000  0.03449000  0.46549000  1
  Si  Si671  1  0.53451000  0.63783000  0.96551000  1
  Si  Si672  1  0.69412000  0.64532000  0.81254000  1
  Si  Si673  1  0.81254000  0.69412000  0.64532000  1
  Si  Si674  1  0.64532000  0.81254000  0.69412000  1
  Si  Si675  1  0.69412000  0.81254000  0.64532000  1
  Si  Si676  1  0.64532000  0.69412000  0.81254000  1
  Si  Si677  1  0.81254000  0.64532000  0.69412000  1
  Si  Si678  1  0.69412000  0.35468000  0.18746000  1
  Si  Si679  1  0.81254000  0.30588000  0.35468000  1
  Si  Si680  1  0.64532000  0.18746000  0.30588000  1
  Si  Si681  1  0.69412000  0.18746000  0.35468000  1
  Si  Si682  1  0.64532000  0.30588000  0.18746000  1
  Si  Si683  1  0.81254000  0.35468000  0.30588000  1
  Si  Si684  1  0.30588000  0.64532000  0.18746000  1
  Si  Si685  1  0.18746000  0.69412000  0.35468000  1
  Si  Si686  1  0.35468000  0.81254000  0.30588000  1
  Si  Si687  1  0.30588000  0.81254000  0.35468000  1
  Si  Si688  1  0.35468000  0.69412000  0.18746000  1
  Si  Si689  1  0.18746000  0.64532000  0.30588000  1
  Si  Si690  1  0.30588000  0.35468000  0.81254000  1
  Si  Si691  1  0.18746000  0.30588000  0.64532000  1
  Si  Si692  1  0.35468000  0.18746000  0.69412000  1
  Si  Si693  1  0.30588000  0.18746000  0.64532000  1
  Si  Si694  1  0.35468000  0.30588000  0.81254000  1
  Si  Si695  1  0.18746000  0.35468000  0.69412000  1
  Si  Si696  1  0.30588000  0.35468000  0.18746000  1
  Si  Si697  1  0.18746000  0.30588000  0.35468000  1
  Si  Si698  1  0.35468000  0.18746000  0.30588000  1
  Si  Si699  1  0.30588000  0.18746000  0.35468000  1
  Si  Si700  1  0.35468000  0.30588000  0.18746000  1
  Si  Si701  1  0.18746000  0.35468000  0.30588000  1
  Si  Si702  1  0.30588000  0.64532000  0.81254000  1
  Si  Si703  1  0.18746000  0.69412000  0.64532000  1
  Si  Si704  1  0.35468000  0.81254000  0.69412000  1
  Si  Si705  1  0.30588000  0.81254000  0.64532000  1
  Si  Si706  1  0.35468000  0.69412000  0.81254000  1
  Si  Si707  1  0.18746000  0.64532000  0.69412000  1
  Si  Si708  1  0.69412000  0.35468000  0.81254000  1
  Si  Si709  1  0.81254000  0.30588000  0.64532000  1
  Si  Si710  1  0.64532000  0.18746000  0.69412000  1
  Si  Si711  1  0.69412000  0.18746000  0.64532000  1
  Si  Si712  1  0.64532000  0.30588000  0.81254000  1
  Si  Si713  1  0.81254000  0.35468000  0.69412000  1
  Si  Si714  1  0.69412000  0.64532000  0.18746000  1
  Si  Si715  1  0.81254000  0.69412000  0.35468000  1
  Si  Si716  1  0.64532000  0.81254000  0.30588000  1
  Si  Si717  1  0.69412000  0.81254000  0.35468000  1
  Si  Si718  1  0.64532000  0.69412000  0.18746000  1
  Si  Si719  1  0.81254000  0.64532000  0.30588000  1
  Si  Si720  1  0.19412000  0.14532000  0.31254000  1
  Si  Si721  1  0.31254000  0.19412000  0.14532000  1
  Si  Si722  1  0.14532000  0.31254000  0.19412000  1
  Si  Si723  1  0.19412000  0.31254000  0.14532000  1
  Si  Si724  1  0.14532000  0.19412000  0.31254000  1
  Si  Si725  1  0.31254000  0.14532000  0.19412000  1
  Si  Si726  1  0.19412000  0.85468000  0.68746000  1
  Si  Si727  1  0.31254000  0.80588000  0.85468000  1
  Si  Si728  1  0.14532000  0.68746000  0.80588000  1
  Si  Si729  1  0.19412000  0.68746000  0.85468000  1
  Si  Si730  1  0.14532000  0.80588000  0.68746000  1
  Si  Si731  1  0.31254000  0.85468000  0.80588000  1
  Si  Si732  1  0.80588000  0.14532000  0.68746000  1
  Si  Si733  1  0.68746000  0.19412000  0.85468000  1
  Si  Si734  1  0.85468000  0.31254000  0.80588000  1
  Si  Si735  1  0.80588000  0.31254000  0.85468000  1
  Si  Si736  1  0.85468000  0.19412000  0.68746000  1
  Si  Si737  1  0.68746000  0.14532000  0.80588000  1
  Si  Si738  1  0.80588000  0.85468000  0.31254000  1
  Si  Si739  1  0.68746000  0.80588000  0.14532000  1
  Si  Si740  1  0.85468000  0.68746000  0.19412000  1
  Si  Si741  1  0.80588000  0.68746000  0.14532000  1
  Si  Si742  1  0.85468000  0.80588000  0.31254000  1
  Si  Si743  1  0.68746000  0.85468000  0.19412000  1
  Si  Si744  1  0.80588000  0.85468000  0.68746000  1
  Si  Si745  1  0.68746000  0.80588000  0.85468000  1
  Si  Si746  1  0.85468000  0.68746000  0.80588000  1
  Si  Si747  1  0.80588000  0.68746000  0.85468000  1
  Si  Si748  1  0.85468000  0.80588000  0.68746000  1
  Si  Si749  1  0.68746000  0.85468000  0.80588000  1
  Si  Si750  1  0.80588000  0.14532000  0.31254000  1
  Si  Si751  1  0.68746000  0.19412000  0.14532000  1
  Si  Si752  1  0.85468000  0.31254000  0.19412000  1
  Si  Si753  1  0.80588000  0.31254000  0.14532000  1
  Si  Si754  1  0.85468000  0.19412000  0.31254000  1
  Si  Si755  1  0.68746000  0.14532000  0.19412000  1
  Si  Si756  1  0.19412000  0.85468000  0.31254000  1
  Si  Si757  1  0.31254000  0.80588000  0.14532000  1
  Si  Si758  1  0.14532000  0.68746000  0.19412000  1
  Si  Si759  1  0.19412000  0.68746000  0.14532000  1
  Si  Si760  1  0.14532000  0.80588000  0.31254000  1
  Si  Si761  1  0.31254000  0.85468000  0.19412000  1
  Si  Si762  1  0.19412000  0.14532000  0.68746000  1
  Si  Si763  1  0.31254000  0.19412000  0.85468000  1
  Si  Si764  1  0.14532000  0.31254000  0.80588000  1
  Si  Si765  1  0.19412000  0.31254000  0.85468000  1
  Si  Si766  1  0.14532000  0.19412000  0.68746000  1
  Si  Si767  1  0.31254000  0.14532000  0.80588000  1
  Si  Si768  1  0.74348000  0.57672000  0.69464000  1
  Si  Si769  1  0.69464000  0.74348000  0.57672000  1
  Si  Si770  1  0.57672000  0.69464000  0.74348000  1
  Si  Si771  1  0.74348000  0.69464000  0.57672000  1
  Si  Si772  1  0.57672000  0.74348000  0.69464000  1
  Si  Si773  1  0.69464000  0.57672000  0.74348000  1
  Si  Si774  1  0.74348000  0.42328000  0.30536000  1
  Si  Si775  1  0.69464000  0.25652000  0.42328000  1
  Si  Si776  1  0.57672000  0.30536000  0.25652000  1
  Si  Si777  1  0.74348000  0.30536000  0.42328000  1
  Si  Si778  1  0.57672000  0.25652000  0.30536000  1
  Si  Si779  1  0.69464000  0.42328000  0.25652000  1
  Si  Si780  1  0.25652000  0.57672000  0.30536000  1
  Si  Si781  1  0.30536000  0.74348000  0.42328000  1
  Si  Si782  1  0.42328000  0.69464000  0.25652000  1
  Si  Si783  1  0.25652000  0.69464000  0.42328000  1
  Si  Si784  1  0.42328000  0.74348000  0.30536000  1
  Si  Si785  1  0.30536000  0.57672000  0.25652000  1
  Si  Si786  1  0.25652000  0.42328000  0.69464000  1
  Si  Si787  1  0.30536000  0.25652000  0.57672000  1
  Si  Si788  1  0.42328000  0.30536000  0.74348000  1
  Si  Si789  1  0.25652000  0.30536000  0.57672000  1
  Si  Si790  1  0.42328000  0.25652000  0.69464000  1
  Si  Si791  1  0.30536000  0.42328000  0.74348000  1
  Si  Si792  1  0.25652000  0.42328000  0.30536000  1
  Si  Si793  1  0.30536000  0.25652000  0.42328000  1
  Si  Si794  1  0.42328000  0.30536000  0.25652000  1
  Si  Si795  1  0.25652000  0.30536000  0.42328000  1
  Si  Si796  1  0.42328000  0.25652000  0.30536000  1
  Si  Si797  1  0.30536000  0.42328000  0.25652000  1
  Si  Si798  1  0.25652000  0.57672000  0.69464000  1
  Si  Si799  1  0.30536000  0.74348000  0.57672000  1
  Si  Si800  1  0.42328000  0.69464000  0.74348000  1
  Si  Si801  1  0.25652000  0.69464000  0.57672000  1
  Si  Si802  1  0.42328000  0.74348000  0.69464000  1
  Si  Si803  1  0.30536000  0.57672000  0.74348000  1
  Si  Si804  1  0.74348000  0.42328000  0.69464000  1
  Si  Si805  1  0.69464000  0.25652000  0.57672000  1
  Si  Si806  1  0.57672000  0.30536000  0.74348000  1
  Si  Si807  1  0.74348000  0.30536000  0.57672000  1
  Si  Si808  1  0.57672000  0.25652000  0.69464000  1
  Si  Si809  1  0.69464000  0.42328000  0.74348000  1
  Si  Si810  1  0.74348000  0.57672000  0.30536000  1
  Si  Si811  1  0.69464000  0.74348000  0.42328000  1
  Si  Si812  1  0.57672000  0.69464000  0.25652000  1
  Si  Si813  1  0.74348000  0.69464000  0.42328000  1
  Si  Si814  1  0.57672000  0.74348000  0.30536000  1
  Si  Si815  1  0.69464000  0.57672000  0.25652000  1
  Si  Si816  1  0.24348000  0.07672000  0.19464000  1
  Si  Si817  1  0.19464000  0.24348000  0.07672000  1
  Si  Si818  1  0.07672000  0.19464000  0.24348000  1
  Si  Si819  1  0.24348000  0.19464000  0.07672000  1
  Si  Si820  1  0.07672000  0.24348000  0.19464000  1
  Si  Si821  1  0.19464000  0.07672000  0.24348000  1
  Si  Si822  1  0.24348000  0.92328000  0.80536000  1
  Si  Si823  1  0.19464000  0.75652000  0.92328000  1
  Si  Si824  1  0.07672000  0.80536000  0.75652000  1
  Si  Si825  1  0.24348000  0.80536000  0.92328000  1
  Si  Si826  1  0.07672000  0.75652000  0.80536000  1
  Si  Si827  1  0.19464000  0.92328000  0.75652000  1
  Si  Si828  1  0.75652000  0.07672000  0.80536000  1
  Si  Si829  1  0.80536000  0.24348000  0.92328000  1
  Si  Si830  1  0.92328000  0.19464000  0.75652000  1
  Si  Si831  1  0.75652000  0.19464000  0.92328000  1
  Si  Si832  1  0.92328000  0.24348000  0.80536000  1
  Si  Si833  1  0.80536000  0.07672000  0.75652000  1
  Si  Si834  1  0.75652000  0.92328000  0.19464000  1
  Si  Si835  1  0.80536000  0.75652000  0.07672000  1
  Si  Si836  1  0.92328000  0.80536000  0.24348000  1
  Si  Si837  1  0.75652000  0.80536000  0.07672000  1
  Si  Si838  1  0.92328000  0.75652000  0.19464000  1
  Si  Si839  1  0.80536000  0.92328000  0.24348000  1
  Si  Si840  1  0.75652000  0.92328000  0.80536000  1
  Si  Si841  1  0.80536000  0.75652000  0.92328000  1
  Si  Si842  1  0.92328000  0.80536000  0.75652000  1
  Si  Si843  1  0.75652000  0.80536000  0.92328000  1
  Si  Si844  1  0.92328000  0.75652000  0.80536000  1
  Si  Si845  1  0.80536000  0.92328000  0.75652000  1
  Si  Si846  1  0.75652000  0.07672000  0.19464000  1
  Si  Si847  1  0.80536000  0.24348000  0.07672000  1
  Si  Si848  1  0.92328000  0.19464000  0.24348000  1
  Si  Si849  1  0.75652000  0.19464000  0.07672000  1
  Si  Si850  1  0.92328000  0.24348000  0.19464000  1
  Si  Si851  1  0.80536000  0.07672000  0.24348000  1
  Si  Si852  1  0.24348000  0.92328000  0.19464000  1
  Si  Si853  1  0.19464000  0.75652000  0.07672000  1
  Si  Si854  1  0.07672000  0.80536000  0.24348000  1
  Si  Si855  1  0.24348000  0.80536000  0.07672000  1
  Si  Si856  1  0.07672000  0.75652000  0.19464000  1
  Si  Si857  1  0.19464000  0.92328000  0.24348000  1
  Si  Si858  1  0.24348000  0.07672000  0.80536000  1
  Si  Si859  1  0.19464000  0.24348000  0.92328000  1
  Si  Si860  1  0.07672000  0.19464000  0.75652000  1
  Si  Si861  1  0.24348000  0.19464000  0.92328000  1
  Si  Si862  1  0.07672000  0.24348000  0.80536000  1
  Si  Si863  1  0.19464000  0.07672000  0.75652000  1
  Si  Si864  1  0.69447000  0.64559000  0.74336000  1
  Si  Si865  1  0.74336000  0.69447000  0.64559000  1
  Si  Si866  1  0.64559000  0.74336000  0.69447000  1
  Si  Si867  1  0.69447000  0.74336000  0.64559000  1
  Si  Si868  1  0.64559000  0.69447000  0.74336000  1
  Si  Si869  1  0.74336000  0.64559000  0.69447000  1
  Si  Si870  1  0.69447000  0.35441000  0.25664000  1
  Si  Si871  1  0.74336000  0.30553000  0.35441000  1
  Si  Si872  1  0.64559000  0.25664000  0.30553000  1
  Si  Si873  1  0.69447000  0.25664000  0.35441000  1
  Si  Si874  1  0.64559000  0.30553000  0.25664000  1
  Si  Si875  1  0.74336000  0.35441000  0.30553000  1
  Si  Si876  1  0.30553000  0.64559000  0.25664000  1
  Si  Si877  1  0.25664000  0.69447000  0.35441000  1
  Si  Si878  1  0.35441000  0.74336000  0.30553000  1
  Si  Si879  1  0.30553000  0.74336000  0.35441000  1
  Si  Si880  1  0.35441000  0.69447000  0.25664000  1
  Si  Si881  1  0.25664000  0.64559000  0.30553000  1
  Si  Si882  1  0.30553000  0.35441000  0.74336000  1
  Si  Si883  1  0.25664000  0.30553000  0.64559000  1
  Si  Si884  1  0.35441000  0.25664000  0.69447000  1
  Si  Si885  1  0.30553000  0.25664000  0.64559000  1
  Si  Si886  1  0.35441000  0.30553000  0.74336000  1
  Si  Si887  1  0.25664000  0.35441000  0.69447000  1
  Si  Si888  1  0.30553000  0.35441000  0.25664000  1
  Si  Si889  1  0.25664000  0.30553000  0.35441000  1
  Si  Si890  1  0.35441000  0.25664000  0.30553000  1
  Si  Si891  1  0.30553000  0.25664000  0.35441000  1
  Si  Si892  1  0.35441000  0.30553000  0.25664000  1
  Si  Si893  1  0.25664000  0.35441000  0.30553000  1
  Si  Si894  1  0.30553000  0.64559000  0.74336000  1
  Si  Si895  1  0.25664000  0.69447000  0.64559000  1
  Si  Si896  1  0.35441000  0.74336000  0.69447000  1
  Si  Si897  1  0.30553000  0.74336000  0.64559000  1
  Si  Si898  1  0.35441000  0.69447000  0.74336000  1
  Si  Si899  1  0.25664000  0.64559000  0.69447000  1
  Si  Si900  1  0.69447000  0.35441000  0.74336000  1
  Si  Si901  1  0.74336000  0.30553000  0.64559000  1
  Si  Si902  1  0.64559000  0.25664000  0.69447000  1
  Si  Si903  1  0.69447000  0.25664000  0.64559000  1
  Si  Si904  1  0.64559000  0.30553000  0.74336000  1
  Si  Si905  1  0.74336000  0.35441000  0.69447000  1
  Si  Si906  1  0.69447000  0.64559000  0.25664000  1
  Si  Si907  1  0.74336000  0.69447000  0.35441000  1
  Si  Si908  1  0.64559000  0.74336000  0.30553000  1
  Si  Si909  1  0.69447000  0.74336000  0.35441000  1
  Si  Si910  1  0.64559000  0.69447000  0.25664000  1
  Si  Si911  1  0.74336000  0.64559000  0.30553000  1
  Si  Si912  1  0.19447000  0.14559000  0.24336000  1
  Si  Si913  1  0.24336000  0.19447000  0.14559000  1
  Si  Si914  1  0.14559000  0.24336000  0.19447000  1
  Si  Si915  1  0.19447000  0.24336000  0.14559000  1
  Si  Si916  1  0.14559000  0.19447000  0.24336000  1
  Si  Si917  1  0.24336000  0.14559000  0.19447000  1
  Si  Si918  1  0.19447000  0.85441000  0.75664000  1
  Si  Si919  1  0.24336000  0.80553000  0.85441000  1
  Si  Si920  1  0.14559000  0.75664000  0.80553000  1
  Si  Si921  1  0.19447000  0.75664000  0.85441000  1
  Si  Si922  1  0.14559000  0.80553000  0.75664000  1
  Si  Si923  1  0.24336000  0.85441000  0.80553000  1
  Si  Si924  1  0.80553000  0.14559000  0.75664000  1
  Si  Si925  1  0.75664000  0.19447000  0.85441000  1
  Si  Si926  1  0.85441000  0.24336000  0.80553000  1
  Si  Si927  1  0.80553000  0.24336000  0.85441000  1
  Si  Si928  1  0.85441000  0.19447000  0.75664000  1
  Si  Si929  1  0.75664000  0.14559000  0.80553000  1
  Si  Si930  1  0.80553000  0.85441000  0.24336000  1
  Si  Si931  1  0.75664000  0.80553000  0.14559000  1
  Si  Si932  1  0.85441000  0.75664000  0.19447000  1
  Si  Si933  1  0.80553000  0.75664000  0.14559000  1
  Si  Si934  1  0.85441000  0.80553000  0.24336000  1
  Si  Si935  1  0.75664000  0.85441000  0.19447000  1
  Si  Si936  1  0.80553000  0.85441000  0.75664000  1
  Si  Si937  1  0.75664000  0.80553000  0.85441000  1
  Si  Si938  1  0.85441000  0.75664000  0.80553000  1
  Si  Si939  1  0.80553000  0.75664000  0.85441000  1
  Si  Si940  1  0.85441000  0.80553000  0.75664000  1
  Si  Si941  1  0.75664000  0.85441000  0.80553000  1
  Si  Si942  1  0.80553000  0.14559000  0.24336000  1
  Si  Si943  1  0.75664000  0.19447000  0.14559000  1
  Si  Si944  1  0.85441000  0.24336000  0.19447000  1
  Si  Si945  1  0.80553000  0.24336000  0.14559000  1
  Si  Si946  1  0.85441000  0.19447000  0.24336000  1
  Si  Si947  1  0.75664000  0.14559000  0.19447000  1
  Si  Si948  1  0.19447000  0.85441000  0.24336000  1
  Si  Si949  1  0.24336000  0.80553000  0.14559000  1
  Si  Si950  1  0.14559000  0.75664000  0.19447000  1
  Si  Si951  1  0.19447000  0.75664000  0.14559000  1
  Si  Si952  1  0.14559000  0.80553000  0.24336000  1
  Si  Si953  1  0.24336000  0.85441000  0.19447000  1
  Si  Si954  1  0.19447000  0.14559000  0.75664000  1
  Si  Si955  1  0.24336000  0.19447000  0.85441000  1
  Si  Si956  1  0.14559000  0.24336000  0.80553000  1
  Si  Si957  1  0.19447000  0.24336000  0.85441000  1
  Si  Si958  1  0.14559000  0.19447000  0.75664000  1
  Si  Si959  1  0.24336000  0.14559000  0.80553000  1
  Si  Si960  1  0.69467000  0.81268000  0.57627000  1
  Si  Si961  1  0.57627000  0.69467000  0.81268000  1
  Si  Si962  1  0.81268000  0.57627000  0.69467000  1
  Si  Si963  1  0.69467000  0.57627000  0.81268000  1
  Si  Si964  1  0.81268000  0.69467000  0.57627000  1
  Si  Si965  1  0.57627000  0.81268000  0.69467000  1
  Si  Si966  1  0.69467000  0.18732000  0.42373000  1
  Si  Si967  1  0.57627000  0.30533000  0.18732000  1
  Si  Si968  1  0.81268000  0.42373000  0.30533000  1
  Si  Si969  1  0.69467000  0.42373000  0.18732000  1
  Si  Si970  1  0.81268000  0.30533000  0.42373000  1
  Si  Si971  1  0.57627000  0.18732000  0.30533000  1
  Si  Si972  1  0.30533000  0.81268000  0.42373000  1
  Si  Si973  1  0.42373000  0.69467000  0.18732000  1
  Si  Si974  1  0.18732000  0.57627000  0.30533000  1
  Si  Si975  1  0.30533000  0.57627000  0.18732000  1
  Si  Si976  1  0.18732000  0.69467000  0.42373000  1
  Si  Si977  1  0.42373000  0.81268000  0.30533000  1
  Si  Si978  1  0.30533000  0.18732000  0.57627000  1
  Si  Si979  1  0.42373000  0.30533000  0.81268000  1
  Si  Si980  1  0.18732000  0.42373000  0.69467000  1
  Si  Si981  1  0.30533000  0.42373000  0.81268000  1
  Si  Si982  1  0.18732000  0.30533000  0.57627000  1
  Si  Si983  1  0.42373000  0.18732000  0.69467000  1
  Si  Si984  1  0.30533000  0.18732000  0.42373000  1
  Si  Si985  1  0.42373000  0.30533000  0.18732000  1
  Si  Si986  1  0.18732000  0.42373000  0.30533000  1
  Si  Si987  1  0.30533000  0.42373000  0.18732000  1
  Si  Si988  1  0.18732000  0.30533000  0.42373000  1
  Si  Si989  1  0.42373000  0.18732000  0.30533000  1
  Si  Si990  1  0.30533000  0.81268000  0.57627000  1
  Si  Si991  1  0.42373000  0.69467000  0.81268000  1
  Si  Si992  1  0.18732000  0.57627000  0.69467000  1
  Si  Si993  1  0.30533000  0.57627000  0.81268000  1
  Si  Si994  1  0.18732000  0.69467000  0.57627000  1
  Si  Si995  1  0.42373000  0.81268000  0.69467000  1
  Si  Si996  1  0.69467000  0.18732000  0.57627000  1
  Si  Si997  1  0.57627000  0.30533000  0.81268000  1
  Si  Si998  1  0.81268000  0.42373000  0.69467000  1
  Si  Si999  1  0.69467000  0.42373000  0.81268000  1
  Si  Si1000  1  0.81268000  0.30533000  0.57627000  1
  Si  Si1001  1  0.57627000  0.18732000  0.69467000  1
  Si  Si1002  1  0.69467000  0.81268000  0.42373000  1
  Si  Si1003  1  0.57627000  0.69467000  0.18732000  1
  Si  Si1004  1  0.81268000  0.57627000  0.30533000  1
  Si  Si1005  1  0.69467000  0.57627000  0.18732000  1
  Si  Si1006  1  0.81268000  0.69467000  0.42373000  1
  Si  Si1007  1  0.57627000  0.81268000  0.30533000  1
  Si  Si1008  1  0.19467000  0.31268000  0.07627000  1
  Si  Si1009  1  0.07627000  0.19467000  0.31268000  1
  Si  Si1010  1  0.31268000  0.07627000  0.19467000  1
  Si  Si1011  1  0.19467000  0.07627000  0.31268000  1
  Si  Si1012  1  0.31268000  0.19467000  0.07627000  1
  Si  Si1013  1  0.07627000  0.31268000  0.19467000  1
  Si  Si1014  1  0.19467000  0.68732000  0.92373000  1
  Si  Si1015  1  0.07627000  0.80533000  0.68732000  1
  Si  Si1016  1  0.31268000  0.92373000  0.80533000  1
  Si  Si1017  1  0.19467000  0.92373000  0.68732000  1
  Si  Si1018  1  0.31268000  0.80533000  0.92373000  1
  Si  Si1019  1  0.07627000  0.68732000  0.80533000  1
  Si  Si1020  1  0.80533000  0.31268000  0.92373000  1
  Si  Si1021  1  0.92373000  0.19467000  0.68732000  1
  Si  Si1022  1  0.68732000  0.07627000  0.80533000  1
  Si  Si1023  1  0.80533000  0.07627000  0.68732000  1
  Si  Si1024  1  0.68732000  0.19467000  0.92373000  1
  Si  Si1025  1  0.92373000  0.31268000  0.80533000  1
  Si  Si1026  1  0.80533000  0.68732000  0.07627000  1
  Si  Si1027  1  0.92373000  0.80533000  0.31268000  1
  Si  Si1028  1  0.68732000  0.92373000  0.19467000  1
  Si  Si1029  1  0.80533000  0.92373000  0.31268000  1
  Si  Si1030  1  0.68732000  0.80533000  0.07627000  1
  Si  Si1031  1  0.92373000  0.68732000  0.19467000  1
  Si  Si1032  1  0.80533000  0.68732000  0.92373000  1
  Si  Si1033  1  0.92373000  0.80533000  0.68732000  1
  Si  Si1034  1  0.68732000  0.92373000  0.80533000  1
  Si  Si1035  1  0.80533000  0.92373000  0.68732000  1
  Si  Si1036  1  0.68732000  0.80533000  0.92373000  1
  Si  Si1037  1  0.92373000  0.68732000  0.80533000  1
  Si  Si1038  1  0.80533000  0.31268000  0.07627000  1
  Si  Si1039  1  0.92373000  0.19467000  0.31268000  1
  Si  Si1040  1  0.68732000  0.07627000  0.19467000  1
  Si  Si1041  1  0.80533000  0.07627000  0.31268000  1
  Si  Si1042  1  0.68732000  0.19467000  0.07627000  1
  Si  Si1043  1  0.92373000  0.31268000  0.19467000  1
  Si  Si1044  1  0.19467000  0.68732000  0.07627000  1
  Si  Si1045  1  0.07627000  0.80533000  0.31268000  1
  Si  Si1046  1  0.31268000  0.92373000  0.19467000  1
  Si  Si1047  1  0.19467000  0.92373000  0.31268000  1
  Si  Si1048  1  0.31268000  0.80533000  0.07627000  1
  Si  Si1049  1  0.07627000  0.68732000  0.19467000  1
  Si  Si1050  1  0.19467000  0.31268000  0.92373000  1
  Si  Si1051  1  0.07627000  0.19467000  0.68732000  1
  Si  Si1052  1  0.31268000  0.07627000  0.80533000  1
  Si  Si1053  1  0.19467000  0.07627000  0.68732000  1
  Si  Si1054  1  0.31268000  0.19467000  0.92373000  1
  Si  Si1055  1  0.07627000  0.31268000  0.80533000  1
  Si  Si1056  1  0.96574000  0.69400000  0.64509000  1
  Si  Si1057  1  0.64509000  0.96574000  0.69400000  1
  Si  Si1058  1  0.69400000  0.64509000  0.96574000  1
  Si  Si1059  1  0.96574000  0.64509000  0.69400000  1
  Si  Si1060  1  0.69400000  0.96574000  0.64509000  1
  Si  Si1061  1  0.64509000  0.69400000  0.96574000  1
  Si  Si1062  1  0.96574000  0.30600000  0.35491000  1
  Si  Si1063  1  0.64509000  0.03426000  0.30600000  1
  Si  Si1064  1  0.69400000  0.35491000  0.03426000  1
  Si  Si1065  1  0.96574000  0.35491000  0.30600000  1
  Si  Si1066  1  0.69400000  0.03426000  0.35491000  1
  Si  Si1067  1  0.64509000  0.30600000  0.03426000  1
  Si  Si1068  1  0.03426000  0.69400000  0.35491000  1
  Si  Si1069  1  0.35491000  0.96574000  0.30600000  1
  Si  Si1070  1  0.30600000  0.64509000  0.03426000  1
  Si  Si1071  1  0.03426000  0.64509000  0.30600000  1
  Si  Si1072  1  0.30600000  0.96574000  0.35491000  1
  Si  Si1073  1  0.35491000  0.69400000  0.03426000  1
  Si  Si1074  1  0.03426000  0.30600000  0.64509000  1
  Si  Si1075  1  0.35491000  0.03426000  0.69400000  1
  Si  Si1076  1  0.30600000  0.35491000  0.96574000  1
  Si  Si1077  1  0.03426000  0.35491000  0.69400000  1
  Si  Si1078  1  0.30600000  0.03426000  0.64509000  1
  Si  Si1079  1  0.35491000  0.30600000  0.96574000  1
  Si  Si1080  1  0.03426000  0.30600000  0.35491000  1
  Si  Si1081  1  0.35491000  0.03426000  0.30600000  1
  Si  Si1082  1  0.30600000  0.35491000  0.03426000  1
  Si  Si1083  1  0.03426000  0.35491000  0.30600000  1
  Si  Si1084  1  0.30600000  0.03426000  0.35491000  1
  Si  Si1085  1  0.35491000  0.30600000  0.03426000  1
  Si  Si1086  1  0.03426000  0.69400000  0.64509000  1
  Si  Si1087  1  0.35491000  0.96574000  0.69400000  1
  Si  Si1088  1  0.30600000  0.64509000  0.96574000  1
  Si  Si1089  1  0.03426000  0.64509000  0.69400000  1
  Si  Si1090  1  0.30600000  0.96574000  0.64509000  1
  Si  Si1091  1  0.35491000  0.69400000  0.96574000  1
  Si  Si1092  1  0.96574000  0.30600000  0.64509000  1
  Si  Si1093  1  0.64509000  0.03426000  0.69400000  1
  Si  Si1094  1  0.69400000  0.35491000  0.96574000  1
  Si  Si1095  1  0.96574000  0.35491000  0.69400000  1
  Si  Si1096  1  0.69400000  0.03426000  0.64509000  1
  Si  Si1097  1  0.64509000  0.30600000  0.96574000  1
  Si  Si1098  1  0.96574000  0.69400000  0.35491000  1
  Si  Si1099  1  0.64509000  0.96574000  0.30600000  1
  Si  Si1100  1  0.69400000  0.64509000  0.03426000  1
  Si  Si1101  1  0.96574000  0.64509000  0.30600000  1
  Si  Si1102  1  0.69400000  0.96574000  0.35491000  1
  Si  Si1103  1  0.64509000  0.69400000  0.03426000  1
  Si  Si1104  1  0.46574000  0.19400000  0.14509000  1
  Si  Si1105  1  0.14509000  0.46574000  0.19400000  1
  Si  Si1106  1  0.19400000  0.14509000  0.46574000  1
  Si  Si1107  1  0.46574000  0.14509000  0.19400000  1
  Si  Si1108  1  0.19400000  0.46574000  0.14509000  1
  Si  Si1109  1  0.14509000  0.19400000  0.46574000  1
  Si  Si1110  1  0.46574000  0.80600000  0.85491000  1
  Si  Si1111  1  0.14509000  0.53426000  0.80600000  1
  Si  Si1112  1  0.19400000  0.85491000  0.53426000  1
  Si  Si1113  1  0.46574000  0.85491000  0.80600000  1
  Si  Si1114  1  0.19400000  0.53426000  0.85491000  1
  Si  Si1115  1  0.14509000  0.80600000  0.53426000  1
  Si  Si1116  1  0.53426000  0.19400000  0.85491000  1
  Si  Si1117  1  0.85491000  0.46574000  0.80600000  1
  Si  Si1118  1  0.80600000  0.14509000  0.53426000  1
  Si  Si1119  1  0.53426000  0.14509000  0.80600000  1
  Si  Si1120  1  0.80600000  0.46574000  0.85491000  1
  Si  Si1121  1  0.85491000  0.19400000  0.53426000  1
  Si  Si1122  1  0.53426000  0.80600000  0.14509000  1
  Si  Si1123  1  0.85491000  0.53426000  0.19400000  1
  Si  Si1124  1  0.80600000  0.85491000  0.46574000  1
  Si  Si1125  1  0.53426000  0.85491000  0.19400000  1
  Si  Si1126  1  0.80600000  0.53426000  0.14509000  1
  Si  Si1127  1  0.85491000  0.80600000  0.46574000  1
  Si  Si1128  1  0.53426000  0.80600000  0.85491000  1
  Si  Si1129  1  0.85491000  0.53426000  0.80600000  1
  Si  Si1130  1  0.80600000  0.85491000  0.53426000  1
  Si  Si1131  1  0.53426000  0.85491000  0.80600000  1
  Si  Si1132  1  0.80600000  0.53426000  0.85491000  1
  Si  Si1133  1  0.85491000  0.80600000  0.53426000  1
  Si  Si1134  1  0.53426000  0.19400000  0.14509000  1
  Si  Si1135  1  0.85491000  0.46574000  0.19400000  1
  Si  Si1136  1  0.80600000  0.14509000  0.46574000  1
  Si  Si1137  1  0.53426000  0.14509000  0.19400000  1
  Si  Si1138  1  0.80600000  0.46574000  0.14509000  1
  Si  Si1139  1  0.85491000  0.19400000  0.46574000  1
  Si  Si1140  1  0.46574000  0.80600000  0.14509000  1
  Si  Si1141  1  0.14509000  0.53426000  0.19400000  1
  Si  Si1142  1  0.19400000  0.85491000  0.46574000  1
  Si  Si1143  1  0.46574000  0.85491000  0.19400000  1
  Si  Si1144  1  0.19400000  0.53426000  0.14509000  1
  Si  Si1145  1  0.14509000  0.80600000  0.46574000  1
  Si  Si1146  1  0.46574000  0.19400000  0.85491000  1
  Si  Si1147  1  0.14509000  0.46574000  0.80600000  1
  Si  Si1148  1  0.19400000  0.14509000  0.53426000  1
  Si  Si1149  1  0.46574000  0.14509000  0.80600000  1
  Si  Si1150  1  0.19400000  0.46574000  0.85491000  1
  Si  Si1151  1  0.14509000  0.19400000  0.53426000  1
  Si  Si1152  1  0.92407000  0.80538000  0.53422000  1
  Si  Si1153  1  0.53422000  0.92407000  0.80538000  1
  Si  Si1154  1  0.80538000  0.53422000  0.92407000  1
  Si  Si1155  1  0.92407000  0.53422000  0.80538000  1
  Si  Si1156  1  0.80538000  0.92407000  0.53422000  1
  Si  Si1157  1  0.53422000  0.80538000  0.92407000  1
  Si  Si1158  1  0.92407000  0.19462000  0.46578000  1
  Si  Si1159  1  0.53422000  0.07593000  0.19462000  1
  Si  Si1160  1  0.80538000  0.46578000  0.07593000  1
  Si  Si1161  1  0.92407000  0.46578000  0.19462000  1
  Si  Si1162  1  0.80538000  0.07593000  0.46578000  1
  Si  Si1163  1  0.53422000  0.19462000  0.07593000  1
  Si  Si1164  1  0.07593000  0.80538000  0.46578000  1
  Si  Si1165  1  0.46578000  0.92407000  0.19462000  1
  Si  Si1166  1  0.19462000  0.53422000  0.07593000  1
  Si  Si1167  1  0.07593000  0.53422000  0.19462000  1
  Si  Si1168  1  0.19462000  0.92407000  0.46578000  1
  Si  Si1169  1  0.46578000  0.80538000  0.07593000  1
  Si  Si1170  1  0.07593000  0.19462000  0.53422000  1
  Si  Si1171  1  0.46578000  0.07593000  0.80538000  1
  Si  Si1172  1  0.19462000  0.46578000  0.92407000  1
  Si  Si1173  1  0.07593000  0.46578000  0.80538000  1
  Si  Si1174  1  0.19462000  0.07593000  0.53422000  1
  Si  Si1175  1  0.46578000  0.19462000  0.92407000  1
  Si  Si1176  1  0.07593000  0.19462000  0.46578000  1
  Si  Si1177  1  0.46578000  0.07593000  0.19462000  1
  Si  Si1178  1  0.19462000  0.46578000  0.07593000  1
  Si  Si1179  1  0.07593000  0.46578000  0.19462000  1
  Si  Si1180  1  0.19462000  0.07593000  0.46578000  1
  Si  Si1181  1  0.46578000  0.19462000  0.07593000  1
  Si  Si1182  1  0.07593000  0.80538000  0.53422000  1
  Si  Si1183  1  0.46578000  0.92407000  0.80538000  1
  Si  Si1184  1  0.19462000  0.53422000  0.92407000  1
  Si  Si1185  1  0.07593000  0.53422000  0.80538000  1
  Si  Si1186  1  0.19462000  0.92407000  0.53422000  1
  Si  Si1187  1  0.46578000  0.80538000  0.92407000  1
  Si  Si1188  1  0.92407000  0.19462000  0.53422000  1
  Si  Si1189  1  0.53422000  0.07593000  0.80538000  1
  Si  Si1190  1  0.80538000  0.46578000  0.92407000  1
  Si  Si1191  1  0.92407000  0.46578000  0.80538000  1
  Si  Si1192  1  0.80538000  0.07593000  0.53422000  1
  Si  Si1193  1  0.53422000  0.19462000  0.92407000  1
  Si  Si1194  1  0.92407000  0.80538000  0.46578000  1
  Si  Si1195  1  0.53422000  0.92407000  0.19462000  1
  Si  Si1196  1  0.80538000  0.53422000  0.07593000  1
  Si  Si1197  1  0.92407000  0.53422000  0.19462000  1
  Si  Si1198  1  0.80538000  0.92407000  0.46578000  1
  Si  Si1199  1  0.53422000  0.80538000  0.07593000  1
  Si  Si1200  1  0.42407000  0.30538000  0.03422000  1
  Si  Si1201  1  0.03422000  0.42407000  0.30538000  1
  Si  Si1202  1  0.30538000  0.03422000  0.42407000  1
  Si  Si1203  1  0.42407000  0.03422000  0.30538000  1
  Si  Si1204  1  0.30538000  0.42407000  0.03422000  1
  Si  Si1205  1  0.03422000  0.30538000  0.42407000  1
  Si  Si1206  1  0.42407000  0.69462000  0.96578000  1
  Si  Si1207  1  0.03422000  0.57593000  0.69462000  1
  Si  Si1208  1  0.30538000  0.96578000  0.57593000  1
  Si  Si1209  1  0.42407000  0.96578000  0.69462000  1
  Si  Si1210  1  0.30538000  0.57593000  0.96578000  1
  Si  Si1211  1  0.03422000  0.69462000  0.57593000  1
  Si  Si1212  1  0.57593000  0.30538000  0.96578000  1
  Si  Si1213  1  0.96578000  0.42407000  0.69462000  1
  Si  Si1214  1  0.69462000  0.03422000  0.57593000  1
  Si  Si1215  1  0.57593000  0.03422000  0.69462000  1
  Si  Si1216  1  0.69462000  0.42407000  0.96578000  1
  Si  Si1217  1  0.96578000  0.30538000  0.57593000  1
  Si  Si1218  1  0.57593000  0.69462000  0.03422000  1
  Si  Si1219  1  0.96578000  0.57593000  0.30538000  1
  Si  Si1220  1  0.69462000  0.96578000  0.42407000  1
  Si  Si1221  1  0.57593000  0.96578000  0.30538000  1
  Si  Si1222  1  0.69462000  0.57593000  0.03422000  1
  Si  Si1223  1  0.96578000  0.69462000  0.42407000  1
  Si  Si1224  1  0.57593000  0.69462000  0.96578000  1
  Si  Si1225  1  0.96578000  0.57593000  0.69462000  1
  Si  Si1226  1  0.69462000  0.96578000  0.57593000  1
  Si  Si1227  1  0.57593000  0.96578000  0.69462000  1
  Si  Si1228  1  0.69462000  0.57593000  0.96578000  1
  Si  Si1229  1  0.96578000  0.69462000  0.57593000  1
  Si  Si1230  1  0.57593000  0.30538000  0.03422000  1
  Si  Si1231  1  0.96578000  0.42407000  0.30538000  1
  Si  Si1232  1  0.69462000  0.03422000  0.42407000  1
  Si  Si1233  1  0.57593000  0.03422000  0.30538000  1
  Si  Si1234  1  0.69462000  0.42407000  0.03422000  1
  Si  Si1235  1  0.96578000  0.30538000  0.42407000  1
  Si  Si1236  1  0.42407000  0.69462000  0.03422000  1
  Si  Si1237  1  0.03422000  0.57593000  0.30538000  1
  Si  Si1238  1  0.30538000  0.96578000  0.42407000  1
  Si  Si1239  1  0.42407000  0.96578000  0.30538000  1
  Si  Si1240  1  0.30538000  0.57593000  0.03422000  1
  Si  Si1241  1  0.03422000  0.69462000  0.42407000  1
  Si  Si1242  1  0.42407000  0.30538000  0.96578000  1
  Si  Si1243  1  0.03422000  0.42407000  0.69462000  1
  Si  Si1244  1  0.30538000  0.03422000  0.57593000  1
  Si  Si1245  1  0.42407000  0.03422000  0.69462000  1
  Si  Si1246  1  0.30538000  0.42407000  0.96578000  1
  Si  Si1247  1  0.03422000  0.30538000  0.57593000  1
  Si  Si1248  1  0.92341000  0.35428000  0.74937000  1
  Si  Si1249  1  0.74937000  0.92341000  0.35428000  1
  Si  Si1250  1  0.35428000  0.74937000  0.92341000  1
  Si  Si1251  1  0.92341000  0.74937000  0.35428000  1
  Si  Si1252  1  0.35428000  0.92341000  0.74937000  1
  Si  Si1253  1  0.74937000  0.35428000  0.92341000  1
  Si  Si1254  1  0.92341000  0.64572000  0.25063000  1
  Si  Si1255  1  0.74937000  0.07659000  0.64572000  1
  Si  Si1256  1  0.35428000  0.25063000  0.07659000  1
  Si  Si1257  1  0.92341000  0.25063000  0.64572000  1
  Si  Si1258  1  0.35428000  0.07659000  0.25063000  1
  Si  Si1259  1  0.74937000  0.64572000  0.07659000  1
  Si  Si1260  1  0.07659000  0.35428000  0.25063000  1
  Si  Si1261  1  0.25063000  0.92341000  0.64572000  1
  Si  Si1262  1  0.64572000  0.74937000  0.07659000  1
  Si  Si1263  1  0.07659000  0.74937000  0.64572000  1
  Si  Si1264  1  0.64572000  0.92341000  0.25063000  1
  Si  Si1265  1  0.25063000  0.35428000  0.07659000  1
  Si  Si1266  1  0.07659000  0.64572000  0.74937000  1
  Si  Si1267  1  0.25063000  0.07659000  0.35428000  1
  Si  Si1268  1  0.64572000  0.25063000  0.92341000  1
  Si  Si1269  1  0.07659000  0.25063000  0.35428000  1
  Si  Si1270  1  0.64572000  0.07659000  0.74937000  1
  Si  Si1271  1  0.25063000  0.64572000  0.92341000  1
  Si  Si1272  1  0.07659000  0.64572000  0.25063000  1
  Si  Si1273  1  0.25063000  0.07659000  0.64572000  1
  Si  Si1274  1  0.64572000  0.25063000  0.07659000  1
  Si  Si1275  1  0.07659000  0.25063000  0.64572000  1
  Si  Si1276  1  0.64572000  0.07659000  0.25063000  1
  Si  Si1277  1  0.25063000  0.64572000  0.07659000  1
  Si  Si1278  1  0.07659000  0.35428000  0.74937000  1
  Si  Si1279  1  0.25063000  0.92341000  0.35428000  1
  Si  Si1280  1  0.64572000  0.74937000  0.92341000  1
  Si  Si1281  1  0.07659000  0.74937000  0.35428000  1
  Si  Si1282  1  0.64572000  0.92341000  0.74937000  1
  Si  Si1283  1  0.25063000  0.35428000  0.92341000  1
  Si  Si1284  1  0.92341000  0.64572000  0.74937000  1
  Si  Si1285  1  0.74937000  0.07659000  0.35428000  1
  Si  Si1286  1  0.35428000  0.25063000  0.92341000  1
  Si  Si1287  1  0.92341000  0.25063000  0.35428000  1
  Si  Si1288  1  0.35428000  0.07659000  0.74937000  1
  Si  Si1289  1  0.74937000  0.64572000  0.92341000  1
  Si  Si1290  1  0.92341000  0.35428000  0.25063000  1
  Si  Si1291  1  0.74937000  0.92341000  0.64572000  1
  Si  Si1292  1  0.35428000  0.74937000  0.07659000  1
  Si  Si1293  1  0.92341000  0.74937000  0.64572000  1
  Si  Si1294  1  0.35428000  0.92341000  0.25063000  1
  Si  Si1295  1  0.74937000  0.35428000  0.07659000  1
  Si  Si1296  1  0.42341000  0.85428000  0.24937000  1
  Si  Si1297  1  0.24937000  0.42341000  0.85428000  1
  Si  Si1298  1  0.85428000  0.24937000  0.42341000  1
  Si  Si1299  1  0.42341000  0.24937000  0.85428000  1
  Si  Si1300  1  0.85428000  0.42341000  0.24937000  1
  Si  Si1301  1  0.24937000  0.85428000  0.42341000  1
  Si  Si1302  1  0.42341000  0.14572000  0.75063000  1
  Si  Si1303  1  0.24937000  0.57659000  0.14572000  1
  Si  Si1304  1  0.85428000  0.75063000  0.57659000  1
  Si  Si1305  1  0.42341000  0.75063000  0.14572000  1
  Si  Si1306  1  0.85428000  0.57659000  0.75063000  1
  Si  Si1307  1  0.24937000  0.14572000  0.57659000  1
  Si  Si1308  1  0.57659000  0.85428000  0.75063000  1
  Si  Si1309  1  0.75063000  0.42341000  0.14572000  1
  Si  Si1310  1  0.14572000  0.24937000  0.57659000  1
  Si  Si1311  1  0.57659000  0.24937000  0.14572000  1
  Si  Si1312  1  0.14572000  0.42341000  0.75063000  1
  Si  Si1313  1  0.75063000  0.85428000  0.57659000  1
  Si  Si1314  1  0.57659000  0.14572000  0.24937000  1
  Si  Si1315  1  0.75063000  0.57659000  0.85428000  1
  Si  Si1316  1  0.14572000  0.75063000  0.42341000  1
  Si  Si1317  1  0.57659000  0.75063000  0.85428000  1
  Si  Si1318  1  0.14572000  0.57659000  0.24937000  1
  Si  Si1319  1  0.75063000  0.14572000  0.42341000  1
  Si  Si1320  1  0.57659000  0.14572000  0.75063000  1
  Si  Si1321  1  0.75063000  0.57659000  0.14572000  1
  Si  Si1322  1  0.14572000  0.75063000  0.57659000  1
  Si  Si1323  1  0.57659000  0.75063000  0.14572000  1
  Si  Si1324  1  0.14572000  0.57659000  0.75063000  1
  Si  Si1325  1  0.75063000  0.14572000  0.57659000  1
  Si  Si1326  1  0.57659000  0.85428000  0.24937000  1
  Si  Si1327  1  0.75063000  0.42341000  0.85428000  1
  Si  Si1328  1  0.14572000  0.24937000  0.42341000  1
  Si  Si1329  1  0.57659000  0.24937000  0.85428000  1
  Si  Si1330  1  0.14572000  0.42341000  0.24937000  1
  Si  Si1331  1  0.75063000  0.85428000  0.42341000  1
  Si  Si1332  1  0.42341000  0.14572000  0.24937000  1
  Si  Si1333  1  0.24937000  0.57659000  0.85428000  1
  Si  Si1334  1  0.85428000  0.75063000  0.42341000  1
  Si  Si1335  1  0.42341000  0.75063000  0.85428000  1
  Si  Si1336  1  0.85428000  0.57659000  0.24937000  1
  Si  Si1337  1  0.24937000  0.14572000  0.42341000  1
  Si  Si1338  1  0.42341000  0.85428000  0.75063000  1
  Si  Si1339  1  0.24937000  0.42341000  0.14572000  1
  Si  Si1340  1  0.85428000  0.24937000  0.57659000  1
  Si  Si1341  1  0.42341000  0.24937000  0.14572000  1
  Si  Si1342  1  0.85428000  0.42341000  0.75063000  1
  Si  Si1343  1  0.24937000  0.85428000  0.57659000  1
  Si  Si1344  1  0.75000000  0.35424000  0.14576000  1
  Si  Si1345  1  0.14576000  0.75000000  0.35424000  1
  Si  Si1346  1  0.35424000  0.14576000  0.75000000  1
  Si  Si1347  1  0.75000000  0.14576000  0.35424000  1
  Si  Si1348  1  0.35424000  0.75000000  0.14576000  1
  Si  Si1349  1  0.14576000  0.35424000  0.75000000  1
  Si  Si1350  1  0.75000000  0.64576000  0.85424000  1
  Si  Si1351  1  0.14576000  0.25000000  0.64576000  1
  Si  Si1352  1  0.35424000  0.85424000  0.25000000  1
  Si  Si1353  1  0.75000000  0.85424000  0.64576000  1
  Si  Si1354  1  0.35424000  0.25000000  0.85424000  1
  Si  Si1355  1  0.14576000  0.64576000  0.25000000  1
  Si  Si1356  1  0.25000000  0.35424000  0.85424000  1
  Si  Si1357  1  0.85424000  0.75000000  0.64576000  1
  Si  Si1358  1  0.64576000  0.14576000  0.25000000  1
  Si  Si1359  1  0.25000000  0.14576000  0.64576000  1
  Si  Si1360  1  0.64576000  0.75000000  0.85424000  1
  Si  Si1361  1  0.85424000  0.35424000  0.25000000  1
  Si  Si1362  1  0.25000000  0.64576000  0.14576000  1
  Si  Si1363  1  0.85424000  0.25000000  0.35424000  1
  Si  Si1364  1  0.64576000  0.85424000  0.75000000  1
  Si  Si1365  1  0.25000000  0.85424000  0.35424000  1
  Si  Si1366  1  0.64576000  0.25000000  0.14576000  1
  Si  Si1367  1  0.85424000  0.64576000  0.75000000  1
  Si  Si1368  1  0.25000000  0.64576000  0.85424000  1
  Si  Si1369  1  0.85424000  0.25000000  0.64576000  1
  Si  Si1370  1  0.64576000  0.85424000  0.25000000  1
  Si  Si1371  1  0.25000000  0.85424000  0.64576000  1
  Si  Si1372  1  0.64576000  0.25000000  0.85424000  1
  Si  Si1373  1  0.85424000  0.64576000  0.25000000  1
  Si  Si1374  1  0.25000000  0.35424000  0.14576000  1
  Si  Si1375  1  0.85424000  0.75000000  0.35424000  1
  Si  Si1376  1  0.64576000  0.14576000  0.75000000  1
  Si  Si1377  1  0.25000000  0.14576000  0.35424000  1
  Si  Si1378  1  0.64576000  0.75000000  0.14576000  1
  Si  Si1379  1  0.85424000  0.35424000  0.75000000  1
  Si  Si1380  1  0.75000000  0.64576000  0.14576000  1
  Si  Si1381  1  0.14576000  0.25000000  0.35424000  1
  Si  Si1382  1  0.35424000  0.85424000  0.75000000  1
  Si  Si1383  1  0.75000000  0.85424000  0.35424000  1
  Si  Si1384  1  0.35424000  0.25000000  0.14576000  1
  Si  Si1385  1  0.14576000  0.64576000  0.75000000  1
  Si  Si1386  1  0.75000000  0.35424000  0.85424000  1
  Si  Si1387  1  0.14576000  0.75000000  0.64576000  1
  Si  Si1388  1  0.35424000  0.14576000  0.25000000  1
  Si  Si1389  1  0.75000000  0.14576000  0.64576000  1
  Si  Si1390  1  0.35424000  0.75000000  0.85424000  1
  Si  Si1391  1  0.14576000  0.35424000  0.25000000  1
  Si  Si1392  1  0.75000000  0.42343000  0.07657000  1
  Si  Si1393  1  0.07657000  0.75000000  0.42343000  1
  Si  Si1394  1  0.42343000  0.07657000  0.75000000  1
  Si  Si1395  1  0.75000000  0.07657000  0.42343000  1
  Si  Si1396  1  0.42343000  0.75000000  0.07657000  1
  Si  Si1397  1  0.07657000  0.42343000  0.75000000  1
  Si  Si1398  1  0.75000000  0.57657000  0.92343000  1
  Si  Si1399  1  0.07657000  0.25000000  0.57657000  1
  Si  Si1400  1  0.42343000  0.92343000  0.25000000  1
  Si  Si1401  1  0.75000000  0.92343000  0.57657000  1
  Si  Si1402  1  0.42343000  0.25000000  0.92343000  1
  Si  Si1403  1  0.07657000  0.57657000  0.25000000  1
  Si  Si1404  1  0.25000000  0.42343000  0.92343000  1
  Si  Si1405  1  0.92343000  0.75000000  0.57657000  1
  Si  Si1406  1  0.57657000  0.07657000  0.25000000  1
  Si  Si1407  1  0.25000000  0.07657000  0.57657000  1
  Si  Si1408  1  0.57657000  0.75000000  0.92343000  1
  Si  Si1409  1  0.92343000  0.42343000  0.25000000  1
  Si  Si1410  1  0.25000000  0.57657000  0.07657000  1
  Si  Si1411  1  0.92343000  0.25000000  0.42343000  1
  Si  Si1412  1  0.57657000  0.92343000  0.75000000  1
  Si  Si1413  1  0.25000000  0.92343000  0.42343000  1
  Si  Si1414  1  0.57657000  0.25000000  0.07657000  1
  Si  Si1415  1  0.92343000  0.57657000  0.75000000  1
  Si  Si1416  1  0.25000000  0.57657000  0.92343000  1
  Si  Si1417  1  0.92343000  0.25000000  0.57657000  1
  Si  Si1418  1  0.57657000  0.92343000  0.25000000  1
  Si  Si1419  1  0.25000000  0.92343000  0.57657000  1
  Si  Si1420  1  0.57657000  0.25000000  0.92343000  1
  Si  Si1421  1  0.92343000  0.57657000  0.25000000  1
  Si  Si1422  1  0.25000000  0.42343000  0.07657000  1
  Si  Si1423  1  0.92343000  0.75000000  0.42343000  1
  Si  Si1424  1  0.57657000  0.07657000  0.75000000  1
  Si  Si1425  1  0.25000000  0.07657000  0.42343000  1
  Si  Si1426  1  0.57657000  0.75000000  0.07657000  1
  Si  Si1427  1  0.92343000  0.42343000  0.75000000  1
  Si  Si1428  1  0.75000000  0.57657000  0.07657000  1
  Si  Si1429  1  0.07657000  0.25000000  0.42343000  1
  Si  Si1430  1  0.42343000  0.92343000  0.75000000  1
  Si  Si1431  1  0.75000000  0.92343000  0.42343000  1
  Si  Si1432  1  0.42343000  0.25000000  0.07657000  1
  Si  Si1433  1  0.07657000  0.57657000  0.75000000  1
  Si  Si1434  1  0.75000000  0.42343000  0.92343000  1
  Si  Si1435  1  0.07657000  0.75000000  0.57657000  1
  Si  Si1436  1  0.42343000  0.07657000  0.25000000  1
  Si  Si1437  1  0.75000000  0.07657000  0.57657000  1
  Si  Si1438  1  0.42343000  0.75000000  0.92343000  1
  Si  Si1439  1  0.07657000  0.42343000  0.25000000  1
