# generated using pymatgen
data_HCO2
_symmetry_space_group_name_H-M   'P 1'
_cell_length_a   7.32360000
_cell_length_b   7.32360000
_cell_length_c   8.31800000
_cell_angle_alpha   90.00000000
_cell_angle_beta   90.00000000
_cell_angle_gamma   120.00000000
_symmetry_Int_Tables_number   1
_chemical_formula_structural   HCO2
_chemical_formula_sum   'H6 C6 O12'
_cell_volume   386.36589145
_cell_formula_units_Z   6
loop_
 _symmetry_equiv_pos_site_id
 _symmetry_equiv_pos_as_xyz
  1  'x, y, z'
loop_
 _atom_site_type_symbol
 _atom_site_label
 _atom_site_symmetry_multiplicity
 _atom_site_fract_x
 _atom_site_fract_y
 _atom_site_fract_z
 _atom_site_occupancy
  H  H0  1  0.00000000  0.41100000  0.00000000  1
  H  H1  1  0.58900000  0.58900000  0.00000000  1
  H  H2  1  0.41100000  0.00000000  0.00000000  1
  H  H3  1  0.00000000  0.58900000  0.50000000  1
  H  H4  1  0.41100000  0.41100000  0.50000000  1
  H  H5  1  0.58900000  0.00000000  0.50000000  1
  C  C6  1  0.00000000  0.56450000  0.00000000  1
  C  C7  1  0.43550000  0.43550000  0.00000000  1
  C  C8  1  0.56450000  0.00000000  0.00000000  1
  C  C9  1  0.00000000  0.43550000  0.50000000  1
  C  C10  1  0.56450000  0.56450000  0.50000000  1
  C  C11  1  0.43550000  0.00000000  0.50000000  1
  O  O12  1  0.10827000  0.69447000  0.10444000  1
  O  O13  1  0.30553000  0.41380000  0.10444000  1
  O  O14  1  0.58620000  0.89173000  0.10444000  1
  O  O15  1  0.89173000  0.30553000  0.60444000  1
  O  O16  1  0.69447000  0.58620000  0.60444000  1
  O  O17  1  0.41380000  0.10827000  0.60444000  1
  O  O18  1  0.69447000  0.10827000  0.89556000  1
  O  O19  1  0.41380000  0.30553000  0.89556000  1
  O  O20  1  0.89173000  0.58620000  0.89556000  1
  O  O21  1  0.30553000  0.89173000  0.39556000  1
  O  O22  1  0.58620000  0.69447000  0.39556000  1
  O  O23  1  0.10827000  0.41380000  0.39556000  1
