# generated using pymatgen
data_FeO6
_symmetry_space_group_name_H-M   'P 1'
_cell_length_a   7.32360000
_cell_length_b   7.32360000
_cell_length_c   8.31800000
_cell_angle_alpha   90.00000000
_cell_angle_beta   90.00000000
_cell_angle_gamma   120.00000000
_symmetry_Int_Tables_number   1
_chemical_formula_structural   FeO6
_chemical_formula_sum   'Fe1 O6'
_cell_volume   386.36589145
_cell_formula_units_Z   1
loop_
 _symmetry_equiv_pos_site_id
 _symmetry_equiv_pos_as_xyz
  1  'x, y, z'
loop_
 _atom_site_type_symbol
 _atom_site_label
 _atom_site_symmetry_multiplicity
 _atom_site_fract_x
 _atom_site_fract_y
 _atom_site_fract_z
 _atom_site_occupancy
  Fe  Fe0  1  0.33333333  0.66666667  0.25000000  1
  O  O1  1  0.10827000  0.69447000  0.10444000  1
  O  O2  1  0.30553000  0.41380000  0.10444000  1
  O  O3  1  0.58620000  0.89173000  0.10444000  1
  O  O4  1  0.30553000  0.89173000  0.39556000  1
  O  O5  1  0.58620000  0.69447000  0.39556000  1
  O  O6  1  0.10827000  0.41380000  0.39556000  1
