# generated using pymatgen
data_H(CO)2
_symmetry_space_group_name_H-M   'P 1'
_cell_length_a   7.02000000
_cell_length_b   8.22700000
_cell_length_c   8.52920000
_cell_angle_alpha   113.30800000
_cell_angle_beta   114.30100000
_cell_angle_gamma   90.00000000
_symmetry_Int_Tables_number   1
_chemical_formula_structural   H(CO)2
_chemical_formula_sum   'H4 C8 O8'
_cell_volume   404.43085569
_cell_formula_units_Z   4
loop_
 _symmetry_equiv_pos_site_id
 _symmetry_equiv_pos_as_xyz
  1  'x, y, z'
loop_
 _atom_site_type_symbol
 _atom_site_label
 _atom_site_symmetry_multiplicity
 _atom_site_fract_x
 _atom_site_fract_y
 _atom_site_fract_z
 _atom_site_occupancy
  H  H0  1  0.40130000  0.94100000  0.08460000  1
  H  H1  1  0.31670000  0.55900000  0.91540000  1
  H  H2  1  0.59870000  0.05900000  0.91540000  1
  H  H3  1  0.68330000  0.44100000  0.08460000  1
  C  C4  1  0.65734000  0.15133000  0.27230000  1
  C  C5  1  0.49966000  0.00982000  0.08132000  1
  C  C6  1  0.38504000  0.34867000  0.72770000  1
  C  C7  1  0.41834000  0.49018000  0.91868000  1
  C  C8  1  0.34266000  0.84867000  0.72770000  1
  C  C9  1  0.50034000  0.99018000  0.91868000  1
  C  C10  1  0.61496000  0.65133000  0.27230000  1
  C  C11  1  0.58166000  0.50982000  0.08132000  1
  O  O12  1  0.79344000  0.25640000  0.27874000  1
  O  O13  1  0.64420000  0.15954000  0.41978000  1
  O  O14  1  0.51470000  0.24360000  0.72126000  1
  O  O15  1  0.22442000  0.34046000  0.58022000  1
  O  O16  1  0.20656000  0.74360000  0.72126000  1
  O  O17  1  0.35580000  0.84046000  0.58022000  1
  O  O18  1  0.48530000  0.75640000  0.27874000  1
  O  O19  1  0.77558000  0.65954000  0.41978000  1
