# generated using pymatgen
data_O2
_symmetry_space_group_name_H-M   'P 1'
_cell_length_a   34.83800000
_cell_length_b   34.83800000
_cell_length_c   34.83800000
_cell_angle_alpha   90.00000000
_cell_angle_beta   90.00000000
_cell_angle_gamma   90.00000000
_symmetry_Int_Tables_number   1
_chemical_formula_structural   O2
_chemical_formula_sum   O1344
_cell_volume   42282.40136847
_cell_formula_units_Z   672
loop_
 _symmetry_equiv_pos_site_id
 _symmetry_equiv_pos_as_xyz
  1  'x, y, z'
loop_
 _atom_site_type_symbol
 _atom_site_label
 _atom_site_symmetry_multiplicity
 _atom_site_fract_x
 _atom_site_fract_y
 _atom_site_fract_z
 _atom_site_occupancy
  O  O0  1  0.30640000  0.23860000  0.14270000  1
  O  O1  1  0.80640000  0.73860000  0.64270000  1
  O  O2  1  0.14270000  0.30640000  0.23860000  1
  O  O3  1  0.64270000  0.80640000  0.73860000  1
  O  O4  1  0.23860000  0.14270000  0.30640000  1
  O  O5  1  0.73860000  0.64270000  0.80640000  1
  O  O6  1  0.30640000  0.23860000  0.85730000  1
  O  O7  1  0.80640000  0.73860000  0.35730000  1
  O  O8  1  0.14270000  0.30640000  0.76140000  1
  O  O9  1  0.64270000  0.80640000  0.26140000  1
  O  O10  1  0.23860000  0.14270000  0.69360000  1
  O  O11  1  0.73860000  0.64270000  0.19360000  1
  O  O12  1  0.69360000  0.23860000  0.14270000  1
  O  O13  1  0.19360000  0.73860000  0.64270000  1
  O  O14  1  0.85730000  0.30640000  0.23860000  1
  O  O15  1  0.35730000  0.80640000  0.73860000  1
  O  O16  1  0.76140000  0.14270000  0.30640000  1
  O  O17  1  0.26140000  0.64270000  0.80640000  1
  O  O18  1  0.69360000  0.23860000  0.85730000  1
  O  O19  1  0.19360000  0.73860000  0.35730000  1
  O  O20  1  0.85730000  0.30640000  0.76140000  1
  O  O21  1  0.35730000  0.80640000  0.26140000  1
  O  O22  1  0.76140000  0.14270000  0.69360000  1
  O  O23  1  0.26140000  0.64270000  0.19360000  1
  O  O24  1  0.23860000  0.30640000  0.14270000  1
  O  O25  1  0.73860000  0.80640000  0.64270000  1
  O  O26  1  0.30640000  0.14270000  0.23860000  1
  O  O27  1  0.80640000  0.64270000  0.73860000  1
  O  O28  1  0.14270000  0.23860000  0.30640000  1
  O  O29  1  0.64270000  0.73860000  0.80640000  1
  O  O30  1  0.23860000  0.30640000  0.85730000  1
  O  O31  1  0.73860000  0.80640000  0.35730000  1
  O  O32  1  0.30640000  0.14270000  0.76140000  1
  O  O33  1  0.80640000  0.64270000  0.26140000  1
  O  O34  1  0.14270000  0.23860000  0.69360000  1
  O  O35  1  0.64270000  0.73860000  0.19360000  1
  O  O36  1  0.23860000  0.69360000  0.14270000  1
  O  O37  1  0.73860000  0.19360000  0.64270000  1
  O  O38  1  0.30640000  0.85730000  0.23860000  1
  O  O39  1  0.80640000  0.35730000  0.73860000  1
  O  O40  1  0.14270000  0.76140000  0.30640000  1
  O  O41  1  0.64270000  0.26140000  0.80640000  1
  O  O42  1  0.23860000  0.69360000  0.85730000  1
  O  O43  1  0.73860000  0.19360000  0.35730000  1
  O  O44  1  0.30640000  0.85730000  0.76140000  1
  O  O45  1  0.80640000  0.35730000  0.26140000  1
  O  O46  1  0.14270000  0.76140000  0.69360000  1
  O  O47  1  0.64270000  0.26140000  0.19360000  1
  O  O48  1  0.69360000  0.76140000  0.85730000  1
  O  O49  1  0.19360000  0.26140000  0.35730000  1
  O  O50  1  0.85730000  0.69360000  0.76140000  1
  O  O51  1  0.35730000  0.19360000  0.26140000  1
  O  O52  1  0.76140000  0.85730000  0.69360000  1
  O  O53  1  0.26140000  0.35730000  0.19360000  1
  O  O54  1  0.69360000  0.76140000  0.14270000  1
  O  O55  1  0.19360000  0.26140000  0.64270000  1
  O  O56  1  0.85730000  0.69360000  0.23860000  1
  O  O57  1  0.35730000  0.19360000  0.73860000  1
  O  O58  1  0.76140000  0.85730000  0.30640000  1
  O  O59  1  0.26140000  0.35730000  0.80640000  1
  O  O60  1  0.30640000  0.76140000  0.85730000  1
  O  O61  1  0.80640000  0.26140000  0.35730000  1
  O  O62  1  0.14270000  0.69360000  0.76140000  1
  O  O63  1  0.64270000  0.19360000  0.26140000  1
  O  O64  1  0.23860000  0.85730000  0.69360000  1
  O  O65  1  0.73860000  0.35730000  0.19360000  1
  O  O66  1  0.30640000  0.76140000  0.14270000  1
  O  O67  1  0.80640000  0.26140000  0.64270000  1
  O  O68  1  0.14270000  0.69360000  0.23860000  1
  O  O69  1  0.64270000  0.19360000  0.73860000  1
  O  O70  1  0.23860000  0.85730000  0.30640000  1
  O  O71  1  0.73860000  0.35730000  0.80640000  1
  O  O72  1  0.76140000  0.69360000  0.85730000  1
  O  O73  1  0.26140000  0.19360000  0.35730000  1
  O  O74  1  0.69360000  0.85730000  0.76140000  1
  O  O75  1  0.19360000  0.35730000  0.26140000  1
  O  O76  1  0.85730000  0.76140000  0.69360000  1
  O  O77  1  0.35730000  0.26140000  0.19360000  1
  O  O78  1  0.76140000  0.69360000  0.14270000  1
  O  O79  1  0.26140000  0.19360000  0.64270000  1
  O  O80  1  0.69360000  0.85730000  0.23860000  1
  O  O81  1  0.19360000  0.35730000  0.73860000  1
  O  O82  1  0.85730000  0.76140000  0.30640000  1
  O  O83  1  0.35730000  0.26140000  0.80640000  1
  O  O84  1  0.76140000  0.30640000  0.85730000  1
  O  O85  1  0.26140000  0.80640000  0.35730000  1
  O  O86  1  0.69360000  0.14270000  0.76140000  1
  O  O87  1  0.19360000  0.64270000  0.26140000  1
  O  O88  1  0.85730000  0.23860000  0.69360000  1
  O  O89  1  0.35730000  0.73860000  0.19360000  1
  O  O90  1  0.76140000  0.30640000  0.14270000  1
  O  O91  1  0.26140000  0.80640000  0.64270000  1
  O  O92  1  0.69360000  0.14270000  0.23860000  1
  O  O93  1  0.19360000  0.64270000  0.73860000  1
  O  O94  1  0.85730000  0.23860000  0.30640000  1
  O  O95  1  0.35730000  0.73860000  0.80640000  1
  O  O96  1  0.30240000  0.21460000  0.07130000  1
  O  O97  1  0.80240000  0.71460000  0.57130000  1
  O  O98  1  0.07130000  0.30240000  0.21460000  1
  O  O99  1  0.57130000  0.80240000  0.71460000  1
  O  O100  1  0.21460000  0.07130000  0.30240000  1
  O  O101  1  0.71460000  0.57130000  0.80240000  1
  O  O102  1  0.30240000  0.21460000  0.92870000  1
  O  O103  1  0.80240000  0.71460000  0.42870000  1
  O  O104  1  0.07130000  0.30240000  0.78540000  1
  O  O105  1  0.57130000  0.80240000  0.28540000  1
  O  O106  1  0.21460000  0.07130000  0.69760000  1
  O  O107  1  0.71460000  0.57130000  0.19760000  1
  O  O108  1  0.69760000  0.21460000  0.07130000  1
  O  O109  1  0.19760000  0.71460000  0.57130000  1
  O  O110  1  0.92870000  0.30240000  0.21460000  1
  O  O111  1  0.42870000  0.80240000  0.71460000  1
  O  O112  1  0.78540000  0.07130000  0.30240000  1
  O  O113  1  0.28540000  0.57130000  0.80240000  1
  O  O114  1  0.69760000  0.21460000  0.92870000  1
  O  O115  1  0.19760000  0.71460000  0.42870000  1
  O  O116  1  0.92870000  0.30240000  0.78540000  1
  O  O117  1  0.42870000  0.80240000  0.28540000  1
  O  O118  1  0.78540000  0.07130000  0.69760000  1
  O  O119  1  0.28540000  0.57130000  0.19760000  1
  O  O120  1  0.21460000  0.30240000  0.07130000  1
  O  O121  1  0.71460000  0.80240000  0.57130000  1
  O  O122  1  0.30240000  0.07130000  0.21460000  1
  O  O123  1  0.80240000  0.57130000  0.71460000  1
  O  O124  1  0.07130000  0.21460000  0.30240000  1
  O  O125  1  0.57130000  0.71460000  0.80240000  1
  O  O126  1  0.21460000  0.30240000  0.92870000  1
  O  O127  1  0.71460000  0.80240000  0.42870000  1
  O  O128  1  0.30240000  0.07130000  0.78540000  1
  O  O129  1  0.80240000  0.57130000  0.28540000  1
  O  O130  1  0.07130000  0.21460000  0.69760000  1
  O  O131  1  0.57130000  0.71460000  0.19760000  1
  O  O132  1  0.21460000  0.69760000  0.07130000  1
  O  O133  1  0.71460000  0.19760000  0.57130000  1
  O  O134  1  0.30240000  0.92870000  0.21460000  1
  O  O135  1  0.80240000  0.42870000  0.71460000  1
  O  O136  1  0.07130000  0.78540000  0.30240000  1
  O  O137  1  0.57130000  0.28540000  0.80240000  1
  O  O138  1  0.21460000  0.69760000  0.92870000  1
  O  O139  1  0.71460000  0.19760000  0.42870000  1
  O  O140  1  0.30240000  0.92870000  0.78540000  1
  O  O141  1  0.80240000  0.42870000  0.28540000  1
  O  O142  1  0.07130000  0.78540000  0.69760000  1
  O  O143  1  0.57130000  0.28540000  0.19760000  1
  O  O144  1  0.69760000  0.78540000  0.92870000  1
  O  O145  1  0.19760000  0.28540000  0.42870000  1
  O  O146  1  0.92870000  0.69760000  0.78540000  1
  O  O147  1  0.42870000  0.19760000  0.28540000  1
  O  O148  1  0.78540000  0.92870000  0.69760000  1
  O  O149  1  0.28540000  0.42870000  0.19760000  1
  O  O150  1  0.69760000  0.78540000  0.07130000  1
  O  O151  1  0.19760000  0.28540000  0.57130000  1
  O  O152  1  0.92870000  0.69760000  0.21460000  1
  O  O153  1  0.42870000  0.19760000  0.71460000  1
  O  O154  1  0.78540000  0.92870000  0.30240000  1
  O  O155  1  0.28540000  0.42870000  0.80240000  1
  O  O156  1  0.30240000  0.78540000  0.92870000  1
  O  O157  1  0.80240000  0.28540000  0.42870000  1
  O  O158  1  0.07130000  0.69760000  0.78540000  1
  O  O159  1  0.57130000  0.19760000  0.28540000  1
  O  O160  1  0.21460000  0.92870000  0.69760000  1
  O  O161  1  0.71460000  0.42870000  0.19760000  1
  O  O162  1  0.30240000  0.78540000  0.07130000  1
  O  O163  1  0.80240000  0.28540000  0.57130000  1
  O  O164  1  0.07130000  0.69760000  0.21460000  1
  O  O165  1  0.57130000  0.19760000  0.71460000  1
  O  O166  1  0.21460000  0.92870000  0.30240000  1
  O  O167  1  0.71460000  0.42870000  0.80240000  1
  O  O168  1  0.78540000  0.69760000  0.92870000  1
  O  O169  1  0.28540000  0.19760000  0.42870000  1
  O  O170  1  0.69760000  0.92870000  0.78540000  1
  O  O171  1  0.19760000  0.42870000  0.28540000  1
  O  O172  1  0.92870000  0.78540000  0.69760000  1
  O  O173  1  0.42870000  0.28540000  0.19760000  1
  O  O174  1  0.78540000  0.69760000  0.07130000  1
  O  O175  1  0.28540000  0.19760000  0.57130000  1
  O  O176  1  0.69760000  0.92870000  0.21460000  1
  O  O177  1  0.19760000  0.42870000  0.71460000  1
  O  O178  1  0.92870000  0.78540000  0.30240000  1
  O  O179  1  0.42870000  0.28540000  0.80240000  1
  O  O180  1  0.78540000  0.30240000  0.92870000  1
  O  O181  1  0.28540000  0.80240000  0.42870000  1
  O  O182  1  0.69760000  0.07130000  0.78540000  1
  O  O183  1  0.19760000  0.57130000  0.28540000  1
  O  O184  1  0.92870000  0.21460000  0.69760000  1
  O  O185  1  0.42870000  0.71460000  0.19760000  1
  O  O186  1  0.78540000  0.30240000  0.07130000  1
  O  O187  1  0.28540000  0.80240000  0.57130000  1
  O  O188  1  0.69760000  0.07130000  0.21460000  1
  O  O189  1  0.19760000  0.57130000  0.71460000  1
  O  O190  1  0.92870000  0.21460000  0.30240000  1
  O  O191  1  0.42870000  0.71460000  0.80240000  1
  O  O192  1  0.35740000  0.26190000  0.09200000  1
  O  O193  1  0.85740000  0.76190000  0.59200000  1
  O  O194  1  0.09200000  0.35740000  0.26190000  1
  O  O195  1  0.59200000  0.85740000  0.76190000  1
  O  O196  1  0.26190000  0.09200000  0.35740000  1
  O  O197  1  0.76190000  0.59200000  0.85740000  1
  O  O198  1  0.35740000  0.26190000  0.90800000  1
  O  O199  1  0.85740000  0.76190000  0.40800000  1
  O  O200  1  0.09200000  0.35740000  0.73810000  1
  O  O201  1  0.59200000  0.85740000  0.23810000  1
  O  O202  1  0.26190000  0.09200000  0.64260000  1
  O  O203  1  0.76190000  0.59200000  0.14260000  1
  O  O204  1  0.64260000  0.26190000  0.09200000  1
  O  O205  1  0.14260000  0.76190000  0.59200000  1
  O  O206  1  0.90800000  0.35740000  0.26190000  1
  O  O207  1  0.40800000  0.85740000  0.76190000  1
  O  O208  1  0.73810000  0.09200000  0.35740000  1
  O  O209  1  0.23810000  0.59200000  0.85740000  1
  O  O210  1  0.64260000  0.26190000  0.90800000  1
  O  O211  1  0.14260000  0.76190000  0.40800000  1
  O  O212  1  0.90800000  0.35740000  0.73810000  1
  O  O213  1  0.40800000  0.85740000  0.23810000  1
  O  O214  1  0.73810000  0.09200000  0.64260000  1
  O  O215  1  0.23810000  0.59200000  0.14260000  1
  O  O216  1  0.26190000  0.35740000  0.09200000  1
  O  O217  1  0.76190000  0.85740000  0.59200000  1
  O  O218  1  0.35740000  0.09200000  0.26190000  1
  O  O219  1  0.85740000  0.59200000  0.76190000  1
  O  O220  1  0.09200000  0.26190000  0.35740000  1
  O  O221  1  0.59200000  0.76190000  0.85740000  1
  O  O222  1  0.26190000  0.35740000  0.90800000  1
  O  O223  1  0.76190000  0.85740000  0.40800000  1
  O  O224  1  0.35740000  0.09200000  0.73810000  1
  O  O225  1  0.85740000  0.59200000  0.23810000  1
  O  O226  1  0.09200000  0.26190000  0.64260000  1
  O  O227  1  0.59200000  0.76190000  0.14260000  1
  O  O228  1  0.26190000  0.64260000  0.09200000  1
  O  O229  1  0.76190000  0.14260000  0.59200000  1
  O  O230  1  0.35740000  0.90800000  0.26190000  1
  O  O231  1  0.85740000  0.40800000  0.76190000  1
  O  O232  1  0.09200000  0.73810000  0.35740000  1
  O  O233  1  0.59200000  0.23810000  0.85740000  1
  O  O234  1  0.26190000  0.64260000  0.90800000  1
  O  O235  1  0.76190000  0.14260000  0.40800000  1
  O  O236  1  0.35740000  0.90800000  0.73810000  1
  O  O237  1  0.85740000  0.40800000  0.23810000  1
  O  O238  1  0.09200000  0.73810000  0.64260000  1
  O  O239  1  0.59200000  0.23810000  0.14260000  1
  O  O240  1  0.64260000  0.73810000  0.90800000  1
  O  O241  1  0.14260000  0.23810000  0.40800000  1
  O  O242  1  0.90800000  0.64260000  0.73810000  1
  O  O243  1  0.40800000  0.14260000  0.23810000  1
  O  O244  1  0.73810000  0.90800000  0.64260000  1
  O  O245  1  0.23810000  0.40800000  0.14260000  1
  O  O246  1  0.64260000  0.73810000  0.09200000  1
  O  O247  1  0.14260000  0.23810000  0.59200000  1
  O  O248  1  0.90800000  0.64260000  0.26190000  1
  O  O249  1  0.40800000  0.14260000  0.76190000  1
  O  O250  1  0.73810000  0.90800000  0.35740000  1
  O  O251  1  0.23810000  0.40800000  0.85740000  1
  O  O252  1  0.35740000  0.73810000  0.90800000  1
  O  O253  1  0.85740000  0.23810000  0.40800000  1
  O  O254  1  0.09200000  0.64260000  0.73810000  1
  O  O255  1  0.59200000  0.14260000  0.23810000  1
  O  O256  1  0.26190000  0.90800000  0.64260000  1
  O  O257  1  0.76190000  0.40800000  0.14260000  1
  O  O258  1  0.35740000  0.73810000  0.09200000  1
  O  O259  1  0.85740000  0.23810000  0.59200000  1
  O  O260  1  0.09200000  0.64260000  0.26190000  1
  O  O261  1  0.59200000  0.14260000  0.76190000  1
  O  O262  1  0.26190000  0.90800000  0.35740000  1
  O  O263  1  0.76190000  0.40800000  0.85740000  1
  O  O264  1  0.73810000  0.64260000  0.90800000  1
  O  O265  1  0.23810000  0.14260000  0.40800000  1
  O  O266  1  0.64260000  0.90800000  0.73810000  1
  O  O267  1  0.14260000  0.40800000  0.23810000  1
  O  O268  1  0.90800000  0.73810000  0.64260000  1
  O  O269  1  0.40800000  0.23810000  0.14260000  1
  O  O270  1  0.73810000  0.64260000  0.09200000  1
  O  O271  1  0.23810000  0.14260000  0.59200000  1
  O  O272  1  0.64260000  0.90800000  0.26190000  1
  O  O273  1  0.14260000  0.40800000  0.76190000  1
  O  O274  1  0.90800000  0.73810000  0.35740000  1
  O  O275  1  0.40800000  0.23810000  0.85740000  1
  O  O276  1  0.73810000  0.35740000  0.90800000  1
  O  O277  1  0.23810000  0.85740000  0.40800000  1
  O  O278  1  0.64260000  0.09200000  0.73810000  1
  O  O279  1  0.14260000  0.59200000  0.23810000  1
  O  O280  1  0.90800000  0.26190000  0.64260000  1
  O  O281  1  0.40800000  0.76190000  0.14260000  1
  O  O282  1  0.73810000  0.35740000  0.09200000  1
  O  O283  1  0.23810000  0.85740000  0.59200000  1
  O  O284  1  0.64260000  0.09200000  0.26190000  1
  O  O285  1  0.14260000  0.59200000  0.76190000  1
  O  O286  1  0.90800000  0.26190000  0.35740000  1
  O  O287  1  0.40800000  0.76190000  0.85740000  1
  O  O288  1  0.28630000  0.28630000  0.08780000  1
  O  O289  1  0.78630000  0.78630000  0.58780000  1
  O  O290  1  0.08780000  0.28630000  0.28630000  1
  O  O291  1  0.58780000  0.78630000  0.78630000  1
  O  O292  1  0.28630000  0.08780000  0.28630000  1
  O  O293  1  0.78630000  0.58780000  0.78630000  1
  O  O294  1  0.28630000  0.28630000  0.91220000  1
  O  O295  1  0.78630000  0.78630000  0.41220000  1
  O  O296  1  0.08780000  0.28630000  0.71370000  1
  O  O297  1  0.58780000  0.78630000  0.21370000  1
  O  O298  1  0.28630000  0.08780000  0.71370000  1
  O  O299  1  0.78630000  0.58780000  0.21370000  1
  O  O300  1  0.71370000  0.28630000  0.08780000  1
  O  O301  1  0.21370000  0.78630000  0.58780000  1
  O  O302  1  0.91220000  0.28630000  0.28630000  1
  O  O303  1  0.41220000  0.78630000  0.78630000  1
  O  O304  1  0.71370000  0.08780000  0.28630000  1
  O  O305  1  0.21370000  0.58780000  0.78630000  1
  O  O306  1  0.71370000  0.28630000  0.91220000  1
  O  O307  1  0.21370000  0.78630000  0.41220000  1
  O  O308  1  0.91220000  0.28630000  0.71370000  1
  O  O309  1  0.41220000  0.78630000  0.21370000  1
  O  O310  1  0.71370000  0.08780000  0.71370000  1
  O  O311  1  0.21370000  0.58780000  0.21370000  1
  O  O312  1  0.28630000  0.71370000  0.08780000  1
  O  O313  1  0.78630000  0.21370000  0.58780000  1
  O  O314  1  0.28630000  0.91220000  0.28630000  1
  O  O315  1  0.78630000  0.41220000  0.78630000  1
  O  O316  1  0.08780000  0.71370000  0.28630000  1
  O  O317  1  0.58780000  0.21370000  0.78630000  1
  O  O318  1  0.28630000  0.71370000  0.91220000  1
  O  O319  1  0.78630000  0.21370000  0.41220000  1
  O  O320  1  0.28630000  0.91220000  0.71370000  1
  O  O321  1  0.78630000  0.41220000  0.21370000  1
  O  O322  1  0.08780000  0.71370000  0.71370000  1
  O  O323  1  0.58780000  0.21370000  0.21370000  1
  O  O324  1  0.71370000  0.71370000  0.91220000  1
  O  O325  1  0.21370000  0.21370000  0.41220000  1
  O  O326  1  0.91220000  0.71370000  0.71370000  1
  O  O327  1  0.41220000  0.21370000  0.21370000  1
  O  O328  1  0.71370000  0.91220000  0.71370000  1
  O  O329  1  0.21370000  0.41220000  0.21370000  1
  O  O330  1  0.71370000  0.71370000  0.08780000  1
  O  O331  1  0.21370000  0.21370000  0.58780000  1
  O  O332  1  0.91220000  0.71370000  0.28630000  1
  O  O333  1  0.41220000  0.21370000  0.78630000  1
  O  O334  1  0.71370000  0.91220000  0.28630000  1
  O  O335  1  0.21370000  0.41220000  0.78630000  1
  O  O336  1  0.50000000  0.12000000  0.05120000  1
  O  O337  1  0.00000000  0.62000000  0.55120000  1
  O  O338  1  0.05120000  0.50000000  0.12000000  1
  O  O339  1  0.55120000  0.00000000  0.62000000  1
  O  O340  1  0.12000000  0.05120000  0.50000000  1
  O  O341  1  0.62000000  0.55120000  0.00000000  1
  O  O342  1  0.50000000  0.12000000  0.94880000  1
  O  O343  1  0.00000000  0.62000000  0.44880000  1
  O  O344  1  0.05120000  0.50000000  0.88000000  1
  O  O345  1  0.55120000  0.00000000  0.38000000  1
  O  O346  1  0.94880000  0.50000000  0.12000000  1
  O  O347  1  0.44880000  0.00000000  0.62000000  1
  O  O348  1  0.88000000  0.05120000  0.50000000  1
  O  O349  1  0.38000000  0.55120000  0.00000000  1
  O  O350  1  0.94880000  0.50000000  0.88000000  1
  O  O351  1  0.44880000  0.00000000  0.38000000  1
  O  O352  1  0.12000000  0.50000000  0.05120000  1
  O  O353  1  0.62000000  0.00000000  0.55120000  1
  O  O354  1  0.50000000  0.05120000  0.12000000  1
  O  O355  1  0.00000000  0.55120000  0.62000000  1
  O  O356  1  0.05120000  0.12000000  0.50000000  1
  O  O357  1  0.55120000  0.62000000  0.00000000  1
  O  O358  1  0.12000000  0.50000000  0.94880000  1
  O  O359  1  0.62000000  0.00000000  0.44880000  1
  O  O360  1  0.50000000  0.05120000  0.88000000  1
  O  O361  1  0.00000000  0.55120000  0.38000000  1
  O  O362  1  0.50000000  0.94880000  0.12000000  1
  O  O363  1  0.00000000  0.44880000  0.62000000  1
  O  O364  1  0.05120000  0.88000000  0.50000000  1
  O  O365  1  0.55120000  0.38000000  0.00000000  1
  O  O366  1  0.50000000  0.94880000  0.88000000  1
  O  O367  1  0.00000000  0.44880000  0.38000000  1
  O  O368  1  0.50000000  0.88000000  0.94880000  1
  O  O369  1  0.00000000  0.38000000  0.44880000  1
  O  O370  1  0.88000000  0.94880000  0.50000000  1
  O  O371  1  0.38000000  0.44880000  0.00000000  1
  O  O372  1  0.50000000  0.88000000  0.05120000  1
  O  O373  1  0.00000000  0.38000000  0.55120000  1
  O  O374  1  0.12000000  0.94880000  0.50000000  1
  O  O375  1  0.62000000  0.44880000  0.00000000  1
  O  O376  1  0.88000000  0.50000000  0.94880000  1
  O  O377  1  0.38000000  0.00000000  0.44880000  1
  O  O378  1  0.94880000  0.88000000  0.50000000  1
  O  O379  1  0.44880000  0.38000000  0.00000000  1
  O  O380  1  0.88000000  0.50000000  0.05120000  1
  O  O381  1  0.38000000  0.00000000  0.55120000  1
  O  O382  1  0.94880000  0.12000000  0.50000000  1
  O  O383  1  0.44880000  0.62000000  0.00000000  1
  O  O384  1  0.44640000  0.07050000  0.07050000  1
  O  O385  1  0.94640000  0.57050000  0.57050000  1
  O  O386  1  0.07050000  0.44640000  0.07050000  1
  O  O387  1  0.57050000  0.94640000  0.57050000  1
  O  O388  1  0.07050000  0.07050000  0.44640000  1
  O  O389  1  0.57050000  0.57050000  0.94640000  1
  O  O390  1  0.44640000  0.07050000  0.92950000  1
  O  O391  1  0.94640000  0.57050000  0.42950000  1
  O  O392  1  0.07050000  0.44640000  0.92950000  1
  O  O393  1  0.57050000  0.94640000  0.42950000  1
  O  O394  1  0.07050000  0.07050000  0.55360000  1
  O  O395  1  0.57050000  0.57050000  0.05360000  1
  O  O396  1  0.55360000  0.07050000  0.07050000  1
  O  O397  1  0.05360000  0.57050000  0.57050000  1
  O  O398  1  0.92950000  0.44640000  0.07050000  1
  O  O399  1  0.42950000  0.94640000  0.57050000  1
  O  O400  1  0.92950000  0.07050000  0.44640000  1
  O  O401  1  0.42950000  0.57050000  0.94640000  1
  O  O402  1  0.55360000  0.07050000  0.92950000  1
  O  O403  1  0.05360000  0.57050000  0.42950000  1
  O  O404  1  0.92950000  0.44640000  0.92950000  1
  O  O405  1  0.42950000  0.94640000  0.42950000  1
  O  O406  1  0.92950000  0.07050000  0.55360000  1
  O  O407  1  0.42950000  0.57050000  0.05360000  1
  O  O408  1  0.07050000  0.55360000  0.07050000  1
  O  O409  1  0.57050000  0.05360000  0.57050000  1
  O  O410  1  0.44640000  0.92950000  0.07050000  1
  O  O411  1  0.94640000  0.42950000  0.57050000  1
  O  O412  1  0.07050000  0.92950000  0.44640000  1
  O  O413  1  0.57050000  0.42950000  0.94640000  1
  O  O414  1  0.07050000  0.55360000  0.92950000  1
  O  O415  1  0.57050000  0.05360000  0.42950000  1
  O  O416  1  0.44640000  0.92950000  0.92950000  1
  O  O417  1  0.94640000  0.42950000  0.42950000  1
  O  O418  1  0.07050000  0.92950000  0.55360000  1
  O  O419  1  0.57050000  0.42950000  0.05360000  1
  O  O420  1  0.55360000  0.92950000  0.92950000  1
  O  O421  1  0.05360000  0.42950000  0.42950000  1
  O  O422  1  0.92950000  0.55360000  0.92950000  1
  O  O423  1  0.42950000  0.05360000  0.42950000  1
  O  O424  1  0.92950000  0.92950000  0.55360000  1
  O  O425  1  0.42950000  0.42950000  0.05360000  1
  O  O426  1  0.55360000  0.92950000  0.07050000  1
  O  O427  1  0.05360000  0.42950000  0.57050000  1
  O  O428  1  0.92950000  0.55360000  0.07050000  1
  O  O429  1  0.42950000  0.05360000  0.57050000  1
  O  O430  1  0.92950000  0.92950000  0.44640000  1
  O  O431  1  0.42950000  0.42950000  0.94640000  1
  O  O432  1  0.44970000  0.09680000  0.00000000  1
  O  O433  1  0.94970000  0.59680000  0.50000000  1
  O  O434  1  0.00000000  0.44970000  0.09680000  1
  O  O435  1  0.50000000  0.94970000  0.59680000  1
  O  O436  1  0.09680000  0.00000000  0.44970000  1
  O  O437  1  0.59680000  0.50000000  0.94970000  1
  O  O438  1  0.00000000  0.44970000  0.90320000  1
  O  O439  1  0.50000000  0.94970000  0.40320000  1
  O  O440  1  0.09680000  0.00000000  0.55030000  1
  O  O441  1  0.59680000  0.50000000  0.05030000  1
  O  O442  1  0.55030000  0.09680000  0.00000000  1
  O  O443  1  0.05030000  0.59680000  0.50000000  1
  O  O444  1  0.90320000  0.00000000  0.44970000  1
  O  O445  1  0.40320000  0.50000000  0.94970000  1
  O  O446  1  0.90320000  0.00000000  0.55030000  1
  O  O447  1  0.40320000  0.50000000  0.05030000  1
  O  O448  1  0.09680000  0.44970000  0.00000000  1
  O  O449  1  0.59680000  0.94970000  0.50000000  1
  O  O450  1  0.44970000  0.00000000  0.09680000  1
  O  O451  1  0.94970000  0.50000000  0.59680000  1
  O  O452  1  0.00000000  0.09680000  0.44970000  1
  O  O453  1  0.50000000  0.59680000  0.94970000  1
  O  O454  1  0.44970000  0.00000000  0.90320000  1
  O  O455  1  0.94970000  0.50000000  0.40320000  1
  O  O456  1  0.00000000  0.09680000  0.55030000  1
  O  O457  1  0.50000000  0.59680000  0.05030000  1
  O  O458  1  0.09680000  0.55030000  0.00000000  1
  O  O459  1  0.59680000  0.05030000  0.50000000  1
  O  O460  1  0.00000000  0.90320000  0.44970000  1
  O  O461  1  0.50000000  0.40320000  0.94970000  1
  O  O462  1  0.00000000  0.90320000  0.55030000  1
  O  O463  1  0.50000000  0.40320000  0.05030000  1
  O  O464  1  0.55030000  0.90320000  0.00000000  1
  O  O465  1  0.05030000  0.40320000  0.50000000  1
  O  O466  1  0.00000000  0.55030000  0.90320000  1
  O  O467  1  0.50000000  0.05030000  0.40320000  1
  O  O468  1  0.00000000  0.55030000  0.09680000  1
  O  O469  1  0.50000000  0.05030000  0.59680000  1
  O  O470  1  0.44970000  0.90320000  0.00000000  1
  O  O471  1  0.94970000  0.40320000  0.50000000  1
  O  O472  1  0.90320000  0.55030000  0.00000000  1
  O  O473  1  0.40320000  0.05030000  0.50000000  1
  O  O474  1  0.55030000  0.00000000  0.90320000  1
  O  O475  1  0.05030000  0.50000000  0.40320000  1
  O  O476  1  0.55030000  0.00000000  0.09680000  1
  O  O477  1  0.05030000  0.50000000  0.59680000  1
  O  O478  1  0.90320000  0.44970000  0.00000000  1
  O  O479  1  0.40320000  0.94970000  0.50000000  1
  O  O480  1  0.42800000  0.14220000  0.05620000  1
  O  O481  1  0.92800000  0.64220000  0.55620000  1
  O  O482  1  0.05620000  0.42800000  0.14220000  1
  O  O483  1  0.55620000  0.92800000  0.64220000  1
  O  O484  1  0.14220000  0.05620000  0.42800000  1
  O  O485  1  0.64220000  0.55620000  0.92800000  1
  O  O486  1  0.42800000  0.14220000  0.94380000  1
  O  O487  1  0.92800000  0.64220000  0.44380000  1
  O  O488  1  0.05620000  0.42800000  0.85780000  1
  O  O489  1  0.55620000  0.92800000  0.35780000  1
  O  O490  1  0.14220000  0.05620000  0.57200000  1
  O  O491  1  0.64220000  0.55620000  0.07200000  1
  O  O492  1  0.57200000  0.14220000  0.05620000  1
  O  O493  1  0.07200000  0.64220000  0.55620000  1
  O  O494  1  0.94380000  0.42800000  0.14220000  1
  O  O495  1  0.44380000  0.92800000  0.64220000  1
  O  O496  1  0.85780000  0.05620000  0.42800000  1
  O  O497  1  0.35780000  0.55620000  0.92800000  1
  O  O498  1  0.57200000  0.14220000  0.94380000  1
  O  O499  1  0.07200000  0.64220000  0.44380000  1
  O  O500  1  0.94380000  0.42800000  0.85780000  1
  O  O501  1  0.44380000  0.92800000  0.35780000  1
  O  O502  1  0.85780000  0.05620000  0.57200000  1
  O  O503  1  0.35780000  0.55620000  0.07200000  1
  O  O504  1  0.14220000  0.42800000  0.05620000  1
  O  O505  1  0.64220000  0.92800000  0.55620000  1
  O  O506  1  0.42800000  0.05620000  0.14220000  1
  O  O507  1  0.92800000  0.55620000  0.64220000  1
  O  O508  1  0.05620000  0.14220000  0.42800000  1
  O  O509  1  0.55620000  0.64220000  0.92800000  1
  O  O510  1  0.14220000  0.42800000  0.94380000  1
  O  O511  1  0.64220000  0.92800000  0.44380000  1
  O  O512  1  0.42800000  0.05620000  0.85780000  1
  O  O513  1  0.92800000  0.55620000  0.35780000  1
  O  O514  1  0.05620000  0.14220000  0.57200000  1
  O  O515  1  0.55620000  0.64220000  0.07200000  1
  O  O516  1  0.14220000  0.57200000  0.05620000  1
  O  O517  1  0.64220000  0.07200000  0.55620000  1
  O  O518  1  0.42800000  0.94380000  0.14220000  1
  O  O519  1  0.92800000  0.44380000  0.64220000  1
  O  O520  1  0.05620000  0.85780000  0.42800000  1
  O  O521  1  0.55620000  0.35780000  0.92800000  1
  O  O522  1  0.14220000  0.57200000  0.94380000  1
  O  O523  1  0.64220000  0.07200000  0.44380000  1
  O  O524  1  0.42800000  0.94380000  0.85780000  1
  O  O525  1  0.92800000  0.44380000  0.35780000  1
  O  O526  1  0.05620000  0.85780000  0.57200000  1
  O  O527  1  0.55620000  0.35780000  0.07200000  1
  O  O528  1  0.57200000  0.85780000  0.94380000  1
  O  O529  1  0.07200000  0.35780000  0.44380000  1
  O  O530  1  0.94380000  0.57200000  0.85780000  1
  O  O531  1  0.44380000  0.07200000  0.35780000  1
  O  O532  1  0.85780000  0.94380000  0.57200000  1
  O  O533  1  0.35780000  0.44380000  0.07200000  1
  O  O534  1  0.57200000  0.85780000  0.05620000  1
  O  O535  1  0.07200000  0.35780000  0.55620000  1
  O  O536  1  0.94380000  0.57200000  0.14220000  1
  O  O537  1  0.44380000  0.07200000  0.64220000  1
  O  O538  1  0.85780000  0.94380000  0.42800000  1
  O  O539  1  0.35780000  0.44380000  0.92800000  1
  O  O540  1  0.42800000  0.85780000  0.94380000  1
  O  O541  1  0.92800000  0.35780000  0.44380000  1
  O  O542  1  0.05620000  0.57200000  0.85780000  1
  O  O543  1  0.55620000  0.07200000  0.35780000  1
  O  O544  1  0.14220000  0.94380000  0.57200000  1
  O  O545  1  0.64220000  0.44380000  0.07200000  1
  O  O546  1  0.42800000  0.85780000  0.05620000  1
  O  O547  1  0.92800000  0.35780000  0.55620000  1
  O  O548  1  0.05620000  0.57200000  0.14220000  1
  O  O549  1  0.55620000  0.07200000  0.64220000  1
  O  O550  1  0.14220000  0.94380000  0.42800000  1
  O  O551  1  0.64220000  0.44380000  0.92800000  1
  O  O552  1  0.85780000  0.57200000  0.94380000  1
  O  O553  1  0.35780000  0.07200000  0.44380000  1
  O  O554  1  0.57200000  0.94380000  0.85780000  1
  O  O555  1  0.07200000  0.44380000  0.35780000  1
  O  O556  1  0.94380000  0.85780000  0.57200000  1
  O  O557  1  0.44380000  0.35780000  0.07200000  1
  O  O558  1  0.85780000  0.57200000  0.05620000  1
  O  O559  1  0.35780000  0.07200000  0.55620000  1
  O  O560  1  0.57200000  0.94380000  0.14220000  1
  O  O561  1  0.07200000  0.44380000  0.64220000  1
  O  O562  1  0.94380000  0.85780000  0.42800000  1
  O  O563  1  0.44380000  0.35780000  0.92800000  1
  O  O564  1  0.85780000  0.42800000  0.94380000  1
  O  O565  1  0.35780000  0.92800000  0.44380000  1
  O  O566  1  0.57200000  0.05620000  0.85780000  1
  O  O567  1  0.07200000  0.55620000  0.35780000  1
  O  O568  1  0.94380000  0.14220000  0.57200000  1
  O  O569  1  0.44380000  0.64220000  0.07200000  1
  O  O570  1  0.85780000  0.42800000  0.05620000  1
  O  O571  1  0.35780000  0.92800000  0.55620000  1
  O  O572  1  0.57200000  0.05620000  0.14220000  1
  O  O573  1  0.07200000  0.55620000  0.64220000  1
  O  O574  1  0.94380000  0.14220000  0.42800000  1
  O  O575  1  0.44380000  0.64220000  0.92800000  1
  O  O576  1  0.35700000  0.16700000  0.04990000  1
  O  O577  1  0.85700000  0.66700000  0.54990000  1
  O  O578  1  0.04990000  0.35700000  0.16700000  1
  O  O579  1  0.54990000  0.85700000  0.66700000  1
  O  O580  1  0.16700000  0.04990000  0.35700000  1
  O  O581  1  0.66700000  0.54990000  0.85700000  1
  O  O582  1  0.35700000  0.16700000  0.95010000  1
  O  O583  1  0.85700000  0.66700000  0.45010000  1
  O  O584  1  0.04990000  0.35700000  0.83300000  1
  O  O585  1  0.54990000  0.85700000  0.33300000  1
  O  O586  1  0.16700000  0.04990000  0.64300000  1
  O  O587  1  0.66700000  0.54990000  0.14300000  1
  O  O588  1  0.64300000  0.16700000  0.04990000  1
  O  O589  1  0.14300000  0.66700000  0.54990000  1
  O  O590  1  0.95010000  0.35700000  0.16700000  1
  O  O591  1  0.45010000  0.85700000  0.66700000  1
  O  O592  1  0.83300000  0.04990000  0.35700000  1
  O  O593  1  0.33300000  0.54990000  0.85700000  1
  O  O594  1  0.64300000  0.16700000  0.95010000  1
  O  O595  1  0.14300000  0.66700000  0.45010000  1
  O  O596  1  0.95010000  0.35700000  0.83300000  1
  O  O597  1  0.45010000  0.85700000  0.33300000  1
  O  O598  1  0.83300000  0.04990000  0.64300000  1
  O  O599  1  0.33300000  0.54990000  0.14300000  1
  O  O600  1  0.16700000  0.35700000  0.04990000  1
  O  O601  1  0.66700000  0.85700000  0.54990000  1
  O  O602  1  0.35700000  0.04990000  0.16700000  1
  O  O603  1  0.85700000  0.54990000  0.66700000  1
  O  O604  1  0.04990000  0.16700000  0.35700000  1
  O  O605  1  0.54990000  0.66700000  0.85700000  1
  O  O606  1  0.16700000  0.35700000  0.95010000  1
  O  O607  1  0.66700000  0.85700000  0.45010000  1
  O  O608  1  0.35700000  0.04990000  0.83300000  1
  O  O609  1  0.85700000  0.54990000  0.33300000  1
  O  O610  1  0.04990000  0.16700000  0.64300000  1
  O  O611  1  0.54990000  0.66700000  0.14300000  1
  O  O612  1  0.16700000  0.64300000  0.04990000  1
  O  O613  1  0.66700000  0.14300000  0.54990000  1
  O  O614  1  0.35700000  0.95010000  0.16700000  1
  O  O615  1  0.85700000  0.45010000  0.66700000  1
  O  O616  1  0.04990000  0.83300000  0.35700000  1
  O  O617  1  0.54990000  0.33300000  0.85700000  1
  O  O618  1  0.16700000  0.64300000  0.95010000  1
  O  O619  1  0.66700000  0.14300000  0.45010000  1
  O  O620  1  0.35700000  0.95010000  0.83300000  1
  O  O621  1  0.85700000  0.45010000  0.33300000  1
  O  O622  1  0.04990000  0.83300000  0.64300000  1
  O  O623  1  0.54990000  0.33300000  0.14300000  1
  O  O624  1  0.64300000  0.83300000  0.95010000  1
  O  O625  1  0.14300000  0.33300000  0.45010000  1
  O  O626  1  0.95010000  0.64300000  0.83300000  1
  O  O627  1  0.45010000  0.14300000  0.33300000  1
  O  O628  1  0.83300000  0.95010000  0.64300000  1
  O  O629  1  0.33300000  0.45010000  0.14300000  1
  O  O630  1  0.64300000  0.83300000  0.04990000  1
  O  O631  1  0.14300000  0.33300000  0.54990000  1
  O  O632  1  0.95010000  0.64300000  0.16700000  1
  O  O633  1  0.45010000  0.14300000  0.66700000  1
  O  O634  1  0.83300000  0.95010000  0.35700000  1
  O  O635  1  0.33300000  0.45010000  0.85700000  1
  O  O636  1  0.35700000  0.83300000  0.95010000  1
  O  O637  1  0.85700000  0.33300000  0.45010000  1
  O  O638  1  0.04990000  0.64300000  0.83300000  1
  O  O639  1  0.54990000  0.14300000  0.33300000  1
  O  O640  1  0.16700000  0.95010000  0.64300000  1
  O  O641  1  0.66700000  0.45010000  0.14300000  1
  O  O642  1  0.35700000  0.83300000  0.04990000  1
  O  O643  1  0.85700000  0.33300000  0.54990000  1
  O  O644  1  0.04990000  0.64300000  0.16700000  1
  O  O645  1  0.54990000  0.14300000  0.66700000  1
  O  O646  1  0.16700000  0.95010000  0.35700000  1
  O  O647  1  0.66700000  0.45010000  0.85700000  1
  O  O648  1  0.83300000  0.64300000  0.95010000  1
  O  O649  1  0.33300000  0.14300000  0.45010000  1
  O  O650  1  0.64300000  0.95010000  0.83300000  1
  O  O651  1  0.14300000  0.45010000  0.33300000  1
  O  O652  1  0.95010000  0.83300000  0.64300000  1
  O  O653  1  0.45010000  0.33300000  0.14300000  1
  O  O654  1  0.83300000  0.64300000  0.04990000  1
  O  O655  1  0.33300000  0.14300000  0.54990000  1
  O  O656  1  0.64300000  0.95010000  0.16700000  1
  O  O657  1  0.14300000  0.45010000  0.66700000  1
  O  O658  1  0.95010000  0.83300000  0.35700000  1
  O  O659  1  0.45010000  0.33300000  0.85700000  1
  O  O660  1  0.83300000  0.35700000  0.95010000  1
  O  O661  1  0.33300000  0.85700000  0.45010000  1
  O  O662  1  0.64300000  0.04990000  0.83300000  1
  O  O663  1  0.14300000  0.54990000  0.33300000  1
  O  O664  1  0.95010000  0.16700000  0.64300000  1
  O  O665  1  0.45010000  0.66700000  0.14300000  1
  O  O666  1  0.83300000  0.35700000  0.04990000  1
  O  O667  1  0.33300000  0.85700000  0.54990000  1
  O  O668  1  0.64300000  0.04990000  0.16700000  1
  O  O669  1  0.14300000  0.54990000  0.66700000  1
  O  O670  1  0.95010000  0.16700000  0.35700000  1
  O  O671  1  0.45010000  0.66700000  0.85700000  1
  O  O672  1  0.40920000  0.18890000  0.00000000  1
  O  O673  1  0.90920000  0.68890000  0.50000000  1
  O  O674  1  0.00000000  0.40920000  0.18890000  1
  O  O675  1  0.50000000  0.90920000  0.68890000  1
  O  O676  1  0.18890000  0.00000000  0.40920000  1
  O  O677  1  0.68890000  0.50000000  0.90920000  1
  O  O678  1  0.00000000  0.40920000  0.81110000  1
  O  O679  1  0.50000000  0.90920000  0.31110000  1
  O  O680  1  0.18890000  0.00000000  0.59080000  1
  O  O681  1  0.68890000  0.50000000  0.09080000  1
  O  O682  1  0.59080000  0.18890000  0.00000000  1
  O  O683  1  0.09080000  0.68890000  0.50000000  1
  O  O684  1  0.81110000  0.00000000  0.40920000  1
  O  O685  1  0.31110000  0.50000000  0.90920000  1
  O  O686  1  0.81110000  0.00000000  0.59080000  1
  O  O687  1  0.31110000  0.50000000  0.09080000  1
  O  O688  1  0.18890000  0.40920000  0.00000000  1
  O  O689  1  0.68890000  0.90920000  0.50000000  1
  O  O690  1  0.40920000  0.00000000  0.18890000  1
  O  O691  1  0.90920000  0.50000000  0.68890000  1
  O  O692  1  0.00000000  0.18890000  0.40920000  1
  O  O693  1  0.50000000  0.68890000  0.90920000  1
  O  O694  1  0.40920000  0.00000000  0.81110000  1
  O  O695  1  0.90920000  0.50000000  0.31110000  1
  O  O696  1  0.00000000  0.18890000  0.59080000  1
  O  O697  1  0.50000000  0.68890000  0.09080000  1
  O  O698  1  0.18890000  0.59080000  0.00000000  1
  O  O699  1  0.68890000  0.09080000  0.50000000  1
  O  O700  1  0.00000000  0.81110000  0.40920000  1
  O  O701  1  0.50000000  0.31110000  0.90920000  1
  O  O702  1  0.00000000  0.81110000  0.59080000  1
  O  O703  1  0.50000000  0.31110000  0.09080000  1
  O  O704  1  0.59080000  0.81110000  0.00000000  1
  O  O705  1  0.09080000  0.31110000  0.50000000  1
  O  O706  1  0.00000000  0.59080000  0.81110000  1
  O  O707  1  0.50000000  0.09080000  0.31110000  1
  O  O708  1  0.00000000  0.59080000  0.18890000  1
  O  O709  1  0.50000000  0.09080000  0.68890000  1
  O  O710  1  0.40920000  0.81110000  0.00000000  1
  O  O711  1  0.90920000  0.31110000  0.50000000  1
  O  O712  1  0.81110000  0.59080000  0.00000000  1
  O  O713  1  0.31110000  0.09080000  0.50000000  1
  O  O714  1  0.59080000  0.00000000  0.81110000  1
  O  O715  1  0.09080000  0.50000000  0.31110000  1
  O  O716  1  0.59080000  0.00000000  0.18890000  1
  O  O717  1  0.09080000  0.50000000  0.68890000  1
  O  O718  1  0.81110000  0.40920000  0.00000000  1
  O  O719  1  0.31110000  0.90920000  0.50000000  1
  O  O720  1  0.41200000  0.21430000  0.07110000  1
  O  O721  1  0.91200000  0.71430000  0.57110000  1
  O  O722  1  0.07110000  0.41200000  0.21430000  1
  O  O723  1  0.57110000  0.91200000  0.71430000  1
  O  O724  1  0.21430000  0.07110000  0.41200000  1
  O  O725  1  0.71430000  0.57110000  0.91200000  1
  O  O726  1  0.41200000  0.21430000  0.92890000  1
  O  O727  1  0.91200000  0.71430000  0.42890000  1
  O  O728  1  0.07110000  0.41200000  0.78570000  1
  O  O729  1  0.57110000  0.91200000  0.28570000  1
  O  O730  1  0.21430000  0.07110000  0.58800000  1
  O  O731  1  0.71430000  0.57110000  0.08800000  1
  O  O732  1  0.58800000  0.21430000  0.07110000  1
  O  O733  1  0.08800000  0.71430000  0.57110000  1
  O  O734  1  0.92890000  0.41200000  0.21430000  1
  O  O735  1  0.42890000  0.91200000  0.71430000  1
  O  O736  1  0.78570000  0.07110000  0.41200000  1
  O  O737  1  0.28570000  0.57110000  0.91200000  1
  O  O738  1  0.58800000  0.21430000  0.92890000  1
  O  O739  1  0.08800000  0.71430000  0.42890000  1
  O  O740  1  0.92890000  0.41200000  0.78570000  1
  O  O741  1  0.42890000  0.91200000  0.28570000  1
  O  O742  1  0.78570000  0.07110000  0.58800000  1
  O  O743  1  0.28570000  0.57110000  0.08800000  1
  O  O744  1  0.21430000  0.41200000  0.07110000  1
  O  O745  1  0.71430000  0.91200000  0.57110000  1
  O  O746  1  0.41200000  0.07110000  0.21430000  1
  O  O747  1  0.91200000  0.57110000  0.71430000  1
  O  O748  1  0.07110000  0.21430000  0.41200000  1
  O  O749  1  0.57110000  0.71430000  0.91200000  1
  O  O750  1  0.21430000  0.41200000  0.92890000  1
  O  O751  1  0.71430000  0.91200000  0.42890000  1
  O  O752  1  0.41200000  0.07110000  0.78570000  1
  O  O753  1  0.91200000  0.57110000  0.28570000  1
  O  O754  1  0.07110000  0.21430000  0.58800000  1
  O  O755  1  0.57110000  0.71430000  0.08800000  1
  O  O756  1  0.21430000  0.58800000  0.07110000  1
  O  O757  1  0.71430000  0.08800000  0.57110000  1
  O  O758  1  0.41200000  0.92890000  0.21430000  1
  O  O759  1  0.91200000  0.42890000  0.71430000  1
  O  O760  1  0.07110000  0.78570000  0.41200000  1
  O  O761  1  0.57110000  0.28570000  0.91200000  1
  O  O762  1  0.21430000  0.58800000  0.92890000  1
  O  O763  1  0.71430000  0.08800000  0.42890000  1
  O  O764  1  0.41200000  0.92890000  0.78570000  1
  O  O765  1  0.91200000  0.42890000  0.28570000  1
  O  O766  1  0.07110000  0.78570000  0.58800000  1
  O  O767  1  0.57110000  0.28570000  0.08800000  1
  O  O768  1  0.58800000  0.78570000  0.92890000  1
  O  O769  1  0.08800000  0.28570000  0.42890000  1
  O  O770  1  0.92890000  0.58800000  0.78570000  1
  O  O771  1  0.42890000  0.08800000  0.28570000  1
  O  O772  1  0.78570000  0.92890000  0.58800000  1
  O  O773  1  0.28570000  0.42890000  0.08800000  1
  O  O774  1  0.58800000  0.78570000  0.07110000  1
  O  O775  1  0.08800000  0.28570000  0.57110000  1
  O  O776  1  0.92890000  0.58800000  0.21430000  1
  O  O777  1  0.42890000  0.08800000  0.71430000  1
  O  O778  1  0.78570000  0.92890000  0.41200000  1
  O  O779  1  0.28570000  0.42890000  0.91200000  1
  O  O780  1  0.41200000  0.78570000  0.92890000  1
  O  O781  1  0.91200000  0.28570000  0.42890000  1
  O  O782  1  0.07110000  0.58800000  0.78570000  1
  O  O783  1  0.57110000  0.08800000  0.28570000  1
  O  O784  1  0.21430000  0.92890000  0.58800000  1
  O  O785  1  0.71430000  0.42890000  0.08800000  1
  O  O786  1  0.41200000  0.78570000  0.07110000  1
  O  O787  1  0.91200000  0.28570000  0.57110000  1
  O  O788  1  0.07110000  0.58800000  0.21430000  1
  O  O789  1  0.57110000  0.08800000  0.71430000  1
  O  O790  1  0.21430000  0.92890000  0.41200000  1
  O  O791  1  0.71430000  0.42890000  0.91200000  1
  O  O792  1  0.78570000  0.58800000  0.92890000  1
  O  O793  1  0.28570000  0.08800000  0.42890000  1
  O  O794  1  0.58800000  0.92890000  0.78570000  1
  O  O795  1  0.08800000  0.42890000  0.28570000  1
  O  O796  1  0.92890000  0.78570000  0.58800000  1
  O  O797  1  0.42890000  0.28570000  0.08800000  1
  O  O798  1  0.78570000  0.58800000  0.07110000  1
  O  O799  1  0.28570000  0.08800000  0.57110000  1
  O  O800  1  0.58800000  0.92890000  0.21430000  1
  O  O801  1  0.08800000  0.42890000  0.71430000  1
  O  O802  1  0.92890000  0.78570000  0.41200000  1
  O  O803  1  0.42890000  0.28570000  0.91200000  1
  O  O804  1  0.78570000  0.41200000  0.92890000  1
  O  O805  1  0.28570000  0.91200000  0.42890000  1
  O  O806  1  0.58800000  0.07110000  0.78570000  1
  O  O807  1  0.08800000  0.57110000  0.28570000  1
  O  O808  1  0.92890000  0.21430000  0.58800000  1
  O  O809  1  0.42890000  0.71430000  0.08800000  1
  O  O810  1  0.78570000  0.41200000  0.07110000  1
  O  O811  1  0.28570000  0.91200000  0.57110000  1
  O  O812  1  0.58800000  0.07110000  0.21430000  1
  O  O813  1  0.08800000  0.57110000  0.71430000  1
  O  O814  1  0.92890000  0.21430000  0.41200000  1
  O  O815  1  0.42890000  0.71430000  0.91200000  1
  O  O816  1  0.28570000  0.14280000  0.05580000  1
  O  O817  1  0.78570000  0.64280000  0.55580000  1
  O  O818  1  0.05580000  0.28570000  0.14280000  1
  O  O819  1  0.55580000  0.78570000  0.64280000  1
  O  O820  1  0.14280000  0.05580000  0.28570000  1
  O  O821  1  0.64280000  0.55580000  0.78570000  1
  O  O822  1  0.28570000  0.14280000  0.94420000  1
  O  O823  1  0.78570000  0.64280000  0.44420000  1
  O  O824  1  0.05580000  0.28570000  0.85720000  1
  O  O825  1  0.55580000  0.78570000  0.35720000  1
  O  O826  1  0.14280000  0.05580000  0.71430000  1
  O  O827  1  0.64280000  0.55580000  0.21430000  1
  O  O828  1  0.71430000  0.14280000  0.05580000  1
  O  O829  1  0.21430000  0.64280000  0.55580000  1
  O  O830  1  0.94420000  0.28570000  0.14280000  1
  O  O831  1  0.44420000  0.78570000  0.64280000  1
  O  O832  1  0.85720000  0.05580000  0.28570000  1
  O  O833  1  0.35720000  0.55580000  0.78570000  1
  O  O834  1  0.71430000  0.14280000  0.94420000  1
  O  O835  1  0.21430000  0.64280000  0.44420000  1
  O  O836  1  0.94420000  0.28570000  0.85720000  1
  O  O837  1  0.44420000  0.78570000  0.35720000  1
  O  O838  1  0.85720000  0.05580000  0.71430000  1
  O  O839  1  0.35720000  0.55580000  0.21430000  1
  O  O840  1  0.14280000  0.28570000  0.05580000  1
  O  O841  1  0.64280000  0.78570000  0.55580000  1
  O  O842  1  0.28570000  0.05580000  0.14280000  1
  O  O843  1  0.78570000  0.55580000  0.64280000  1
  O  O844  1  0.05580000  0.14280000  0.28570000  1
  O  O845  1  0.55580000  0.64280000  0.78570000  1
  O  O846  1  0.14280000  0.28570000  0.94420000  1
  O  O847  1  0.64280000  0.78570000  0.44420000  1
  O  O848  1  0.28570000  0.05580000  0.85720000  1
  O  O849  1  0.78570000  0.55580000  0.35720000  1
  O  O850  1  0.05580000  0.14280000  0.71430000  1
  O  O851  1  0.55580000  0.64280000  0.21430000  1
  O  O852  1  0.14280000  0.71430000  0.05580000  1
  O  O853  1  0.64280000  0.21430000  0.55580000  1
  O  O854  1  0.28570000  0.94420000  0.14280000  1
  O  O855  1  0.78570000  0.44420000  0.64280000  1
  O  O856  1  0.05580000  0.85720000  0.28570000  1
  O  O857  1  0.55580000  0.35720000  0.78570000  1
  O  O858  1  0.14280000  0.71430000  0.94420000  1
  O  O859  1  0.64280000  0.21430000  0.44420000  1
  O  O860  1  0.28570000  0.94420000  0.85720000  1
  O  O861  1  0.78570000  0.44420000  0.35720000  1
  O  O862  1  0.05580000  0.85720000  0.71430000  1
  O  O863  1  0.55580000  0.35720000  0.21430000  1
  O  O864  1  0.71430000  0.85720000  0.94420000  1
  O  O865  1  0.21430000  0.35720000  0.44420000  1
  O  O866  1  0.94420000  0.71430000  0.85720000  1
  O  O867  1  0.44420000  0.21430000  0.35720000  1
  O  O868  1  0.85720000  0.94420000  0.71430000  1
  O  O869  1  0.35720000  0.44420000  0.21430000  1
  O  O870  1  0.71430000  0.85720000  0.05580000  1
  O  O871  1  0.21430000  0.35720000  0.55580000  1
  O  O872  1  0.94420000  0.71430000  0.14280000  1
  O  O873  1  0.44420000  0.21430000  0.64280000  1
  O  O874  1  0.85720000  0.94420000  0.28570000  1
  O  O875  1  0.35720000  0.44420000  0.78570000  1
  O  O876  1  0.28570000  0.85720000  0.94420000  1
  O  O877  1  0.78570000  0.35720000  0.44420000  1
  O  O878  1  0.05580000  0.71430000  0.85720000  1
  O  O879  1  0.55580000  0.21430000  0.35720000  1
  O  O880  1  0.14280000  0.94420000  0.71430000  1
  O  O881  1  0.64280000  0.44420000  0.21430000  1
  O  O882  1  0.28570000  0.85720000  0.05580000  1
  O  O883  1  0.78570000  0.35720000  0.55580000  1
  O  O884  1  0.05580000  0.71430000  0.14280000  1
  O  O885  1  0.55580000  0.21430000  0.64280000  1
  O  O886  1  0.14280000  0.94420000  0.28570000  1
  O  O887  1  0.64280000  0.44420000  0.78570000  1
  O  O888  1  0.85720000  0.71430000  0.94420000  1
  O  O889  1  0.35720000  0.21430000  0.44420000  1
  O  O890  1  0.71430000  0.94420000  0.85720000  1
  O  O891  1  0.21430000  0.44420000  0.35720000  1
  O  O892  1  0.94420000  0.85720000  0.71430000  1
  O  O893  1  0.44420000  0.35720000  0.21430000  1
  O  O894  1  0.85720000  0.71430000  0.05580000  1
  O  O895  1  0.35720000  0.21430000  0.55580000  1
  O  O896  1  0.71430000  0.94420000  0.14280000  1
  O  O897  1  0.21430000  0.44420000  0.64280000  1
  O  O898  1  0.94420000  0.85720000  0.28570000  1
  O  O899  1  0.44420000  0.35720000  0.78570000  1
  O  O900  1  0.85720000  0.28570000  0.94420000  1
  O  O901  1  0.35720000  0.78570000  0.44420000  1
  O  O902  1  0.71430000  0.05580000  0.85720000  1
  O  O903  1  0.21430000  0.55580000  0.35720000  1
  O  O904  1  0.94420000  0.14280000  0.71430000  1
  O  O905  1  0.44420000  0.64280000  0.21430000  1
  O  O906  1  0.85720000  0.28570000  0.05580000  1
  O  O907  1  0.35720000  0.78570000  0.55580000  1
  O  O908  1  0.71430000  0.05580000  0.14280000  1
  O  O909  1  0.21430000  0.55580000  0.64280000  1
  O  O910  1  0.94420000  0.14280000  0.28570000  1
  O  O911  1  0.44420000  0.64280000  0.78570000  1
  O  O912  1  0.30520000  0.18980000  0.00000000  1
  O  O913  1  0.80520000  0.68980000  0.50000000  1
  O  O914  1  0.00000000  0.30520000  0.18980000  1
  O  O915  1  0.50000000  0.80520000  0.68980000  1
  O  O916  1  0.18980000  0.00000000  0.30520000  1
  O  O917  1  0.68980000  0.50000000  0.80520000  1
  O  O918  1  0.00000000  0.30520000  0.81020000  1
  O  O919  1  0.50000000  0.80520000  0.31020000  1
  O  O920  1  0.18980000  0.00000000  0.69480000  1
  O  O921  1  0.68980000  0.50000000  0.19480000  1
  O  O922  1  0.69480000  0.18980000  0.00000000  1
  O  O923  1  0.19480000  0.68980000  0.50000000  1
  O  O924  1  0.81020000  0.00000000  0.30520000  1
  O  O925  1  0.31020000  0.50000000  0.80520000  1
  O  O926  1  0.81020000  0.00000000  0.69480000  1
  O  O927  1  0.31020000  0.50000000  0.19480000  1
  O  O928  1  0.18980000  0.30520000  0.00000000  1
  O  O929  1  0.68980000  0.80520000  0.50000000  1
  O  O930  1  0.30520000  0.00000000  0.18980000  1
  O  O931  1  0.80520000  0.50000000  0.68980000  1
  O  O932  1  0.00000000  0.18980000  0.30520000  1
  O  O933  1  0.50000000  0.68980000  0.80520000  1
  O  O934  1  0.30520000  0.00000000  0.81020000  1
  O  O935  1  0.80520000  0.50000000  0.31020000  1
  O  O936  1  0.00000000  0.18980000  0.69480000  1
  O  O937  1  0.50000000  0.68980000  0.19480000  1
  O  O938  1  0.18980000  0.69480000  0.00000000  1
  O  O939  1  0.68980000  0.19480000  0.50000000  1
  O  O940  1  0.00000000  0.81020000  0.30520000  1
  O  O941  1  0.50000000  0.31020000  0.80520000  1
  O  O942  1  0.00000000  0.81020000  0.69480000  1
  O  O943  1  0.50000000  0.31020000  0.19480000  1
  O  O944  1  0.69480000  0.81020000  0.00000000  1
  O  O945  1  0.19480000  0.31020000  0.50000000  1
  O  O946  1  0.00000000  0.69480000  0.81020000  1
  O  O947  1  0.50000000  0.19480000  0.31020000  1
  O  O948  1  0.00000000  0.69480000  0.18980000  1
  O  O949  1  0.50000000  0.19480000  0.68980000  1
  O  O950  1  0.30520000  0.81020000  0.00000000  1
  O  O951  1  0.80520000  0.31020000  0.50000000  1
  O  O952  1  0.81020000  0.69480000  0.00000000  1
  O  O953  1  0.31020000  0.19480000  0.50000000  1
  O  O954  1  0.69480000  0.00000000  0.81020000  1
  O  O955  1  0.19480000  0.50000000  0.31020000  1
  O  O956  1  0.69480000  0.00000000  0.18980000  1
  O  O957  1  0.19480000  0.50000000  0.68980000  1
  O  O958  1  0.81020000  0.30520000  0.00000000  1
  O  O959  1  0.31020000  0.80520000  0.50000000  1
  O  O960  1  0.21420000  0.11890000  0.05090000  1
  O  O961  1  0.71420000  0.61890000  0.55090000  1
  O  O962  1  0.05090000  0.21420000  0.11890000  1
  O  O963  1  0.55090000  0.71420000  0.61890000  1
  O  O964  1  0.11890000  0.05090000  0.21420000  1
  O  O965  1  0.61890000  0.55090000  0.71420000  1
  O  O966  1  0.21420000  0.11890000  0.94910000  1
  O  O967  1  0.71420000  0.61890000  0.44910000  1
  O  O968  1  0.05090000  0.21420000  0.88110000  1
  O  O969  1  0.55090000  0.71420000  0.38110000  1
  O  O970  1  0.11890000  0.05090000  0.78580000  1
  O  O971  1  0.61890000  0.55090000  0.28580000  1
  O  O972  1  0.78580000  0.11890000  0.05090000  1
  O  O973  1  0.28580000  0.61890000  0.55090000  1
  O  O974  1  0.94910000  0.21420000  0.11890000  1
  O  O975  1  0.44910000  0.71420000  0.61890000  1
  O  O976  1  0.88110000  0.05090000  0.21420000  1
  O  O977  1  0.38110000  0.55090000  0.71420000  1
  O  O978  1  0.78580000  0.11890000  0.94910000  1
  O  O979  1  0.28580000  0.61890000  0.44910000  1
  O  O980  1  0.94910000  0.21420000  0.88110000  1
  O  O981  1  0.44910000  0.71420000  0.38110000  1
  O  O982  1  0.88110000  0.05090000  0.78580000  1
  O  O983  1  0.38110000  0.55090000  0.28580000  1
  O  O984  1  0.11890000  0.21420000  0.05090000  1
  O  O985  1  0.61890000  0.71420000  0.55090000  1
  O  O986  1  0.21420000  0.05090000  0.11890000  1
  O  O987  1  0.71420000  0.55090000  0.61890000  1
  O  O988  1  0.05090000  0.11890000  0.21420000  1
  O  O989  1  0.55090000  0.61890000  0.71420000  1
  O  O990  1  0.11890000  0.21420000  0.94910000  1
  O  O991  1  0.61890000  0.71420000  0.44910000  1
  O  O992  1  0.21420000  0.05090000  0.88110000  1
  O  O993  1  0.71420000  0.55090000  0.38110000  1
  O  O994  1  0.05090000  0.11890000  0.78580000  1
  O  O995  1  0.55090000  0.61890000  0.28580000  1
  O  O996  1  0.11890000  0.78580000  0.05090000  1
  O  O997  1  0.61890000  0.28580000  0.55090000  1
  O  O998  1  0.21420000  0.94910000  0.11890000  1
  O  O999  1  0.71420000  0.44910000  0.61890000  1
  O  O1000  1  0.05090000  0.88110000  0.21420000  1
  O  O1001  1  0.55090000  0.38110000  0.71420000  1
  O  O1002  1  0.11890000  0.78580000  0.94910000  1
  O  O1003  1  0.61890000  0.28580000  0.44910000  1
  O  O1004  1  0.21420000  0.94910000  0.88110000  1
  O  O1005  1  0.71420000  0.44910000  0.38110000  1
  O  O1006  1  0.05090000  0.88110000  0.78580000  1
  O  O1007  1  0.55090000  0.38110000  0.28580000  1
  O  O1008  1  0.78580000  0.88110000  0.94910000  1
  O  O1009  1  0.28580000  0.38110000  0.44910000  1
  O  O1010  1  0.94910000  0.78580000  0.88110000  1
  O  O1011  1  0.44910000  0.28580000  0.38110000  1
  O  O1012  1  0.88110000  0.94910000  0.78580000  1
  O  O1013  1  0.38110000  0.44910000  0.28580000  1
  O  O1014  1  0.78580000  0.88110000  0.05090000  1
  O  O1015  1  0.28580000  0.38110000  0.55090000  1
  O  O1016  1  0.94910000  0.78580000  0.11890000  1
  O  O1017  1  0.44910000  0.28580000  0.61890000  1
  O  O1018  1  0.88110000  0.94910000  0.21420000  1
  O  O1019  1  0.38110000  0.44910000  0.71420000  1
  O  O1020  1  0.21420000  0.88110000  0.94910000  1
  O  O1021  1  0.71420000  0.38110000  0.44910000  1
  O  O1022  1  0.05090000  0.78580000  0.88110000  1
  O  O1023  1  0.55090000  0.28580000  0.38110000  1
  O  O1024  1  0.11890000  0.94910000  0.78580000  1
  O  O1025  1  0.61890000  0.44910000  0.28580000  1
  O  O1026  1  0.21420000  0.88110000  0.05090000  1
  O  O1027  1  0.71420000  0.38110000  0.55090000  1
  O  O1028  1  0.05090000  0.78580000  0.11890000  1
  O  O1029  1  0.55090000  0.28580000  0.61890000  1
  O  O1030  1  0.11890000  0.94910000  0.21420000  1
  O  O1031  1  0.61890000  0.44910000  0.71420000  1
  O  O1032  1  0.88110000  0.78580000  0.94910000  1
  O  O1033  1  0.38110000  0.28580000  0.44910000  1
  O  O1034  1  0.78580000  0.94910000  0.88110000  1
  O  O1035  1  0.28580000  0.44910000  0.38110000  1
  O  O1036  1  0.94910000  0.88110000  0.78580000  1
  O  O1037  1  0.44910000  0.38110000  0.28580000  1
  O  O1038  1  0.88110000  0.78580000  0.05090000  1
  O  O1039  1  0.38110000  0.28580000  0.55090000  1
  O  O1040  1  0.78580000  0.94910000  0.11890000  1
  O  O1041  1  0.28580000  0.44910000  0.61890000  1
  O  O1042  1  0.94910000  0.88110000  0.21420000  1
  O  O1043  1  0.44910000  0.38110000  0.71420000  1
  O  O1044  1  0.88110000  0.21420000  0.94910000  1
  O  O1045  1  0.38110000  0.71420000  0.44910000  1
  O  O1046  1  0.78580000  0.05090000  0.88110000  1
  O  O1047  1  0.28580000  0.55090000  0.38110000  1
  O  O1048  1  0.94910000  0.11890000  0.78580000  1
  O  O1049  1  0.44910000  0.61890000  0.28580000  1
  O  O1050  1  0.88110000  0.21420000  0.05090000  1
  O  O1051  1  0.38110000  0.71420000  0.55090000  1
  O  O1052  1  0.78580000  0.05090000  0.11890000  1
  O  O1053  1  0.28580000  0.55090000  0.61890000  1
  O  O1054  1  0.94910000  0.11890000  0.21420000  1
  O  O1055  1  0.44910000  0.61890000  0.71420000  1
  O  O1056  1  0.26510000  0.09630000  0.00000000  1
  O  O1057  1  0.76510000  0.59630000  0.50000000  1
  O  O1058  1  0.00000000  0.26510000  0.09630000  1
  O  O1059  1  0.50000000  0.76510000  0.59630000  1
  O  O1060  1  0.09630000  0.00000000  0.26510000  1
  O  O1061  1  0.59630000  0.50000000  0.76510000  1
  O  O1062  1  0.00000000  0.26510000  0.90370000  1
  O  O1063  1  0.50000000  0.76510000  0.40370000  1
  O  O1064  1  0.09630000  0.00000000  0.73490000  1
  O  O1065  1  0.59630000  0.50000000  0.23490000  1
  O  O1066  1  0.73490000  0.09630000  0.00000000  1
  O  O1067  1  0.23490000  0.59630000  0.50000000  1
  O  O1068  1  0.90370000  0.00000000  0.26510000  1
  O  O1069  1  0.40370000  0.50000000  0.76510000  1
  O  O1070  1  0.90370000  0.00000000  0.73490000  1
  O  O1071  1  0.40370000  0.50000000  0.23490000  1
  O  O1072  1  0.09630000  0.26510000  0.00000000  1
  O  O1073  1  0.59630000  0.76510000  0.50000000  1
  O  O1074  1  0.26510000  0.00000000  0.09630000  1
  O  O1075  1  0.76510000  0.50000000  0.59630000  1
  O  O1076  1  0.00000000  0.09630000  0.26510000  1
  O  O1077  1  0.50000000  0.59630000  0.76510000  1
  O  O1078  1  0.26510000  0.00000000  0.90370000  1
  O  O1079  1  0.76510000  0.50000000  0.40370000  1
  O  O1080  1  0.00000000  0.09630000  0.73490000  1
  O  O1081  1  0.50000000  0.59630000  0.23490000  1
  O  O1082  1  0.09630000  0.73490000  0.00000000  1
  O  O1083  1  0.59630000  0.23490000  0.50000000  1
  O  O1084  1  0.00000000  0.90370000  0.26510000  1
  O  O1085  1  0.50000000  0.40370000  0.76510000  1
  O  O1086  1  0.00000000  0.90370000  0.73490000  1
  O  O1087  1  0.50000000  0.40370000  0.23490000  1
  O  O1088  1  0.73490000  0.90370000  0.00000000  1
  O  O1089  1  0.23490000  0.40370000  0.50000000  1
  O  O1090  1  0.00000000  0.73490000  0.90370000  1
  O  O1091  1  0.50000000  0.23490000  0.40370000  1
  O  O1092  1  0.00000000  0.73490000  0.09630000  1
  O  O1093  1  0.50000000  0.23490000  0.59630000  1
  O  O1094  1  0.26510000  0.90370000  0.00000000  1
  O  O1095  1  0.76510000  0.40370000  0.50000000  1
  O  O1096  1  0.90370000  0.73490000  0.00000000  1
  O  O1097  1  0.40370000  0.23490000  0.50000000  1
  O  O1098  1  0.73490000  0.00000000  0.90370000  1
  O  O1099  1  0.23490000  0.50000000  0.40370000  1
  O  O1100  1  0.73490000  0.00000000  0.09630000  1
  O  O1101  1  0.23490000  0.50000000  0.59630000  1
  O  O1102  1  0.90370000  0.26510000  0.00000000  1
  O  O1103  1  0.40370000  0.76510000  0.50000000  1
  O  O1104  1  0.26890000  0.07080000  0.07080000  1
  O  O1105  1  0.76890000  0.57080000  0.57080000  1
  O  O1106  1  0.07080000  0.26890000  0.07080000  1
  O  O1107  1  0.57080000  0.76890000  0.57080000  1
  O  O1108  1  0.07080000  0.07080000  0.26890000  1
  O  O1109  1  0.57080000  0.57080000  0.76890000  1
  O  O1110  1  0.26890000  0.07080000  0.92920000  1
  O  O1111  1  0.76890000  0.57080000  0.42920000  1
  O  O1112  1  0.07080000  0.26890000  0.92920000  1
  O  O1113  1  0.57080000  0.76890000  0.42920000  1
  O  O1114  1  0.07080000  0.07080000  0.73110000  1
  O  O1115  1  0.57080000  0.57080000  0.23110000  1
  O  O1116  1  0.73110000  0.07080000  0.07080000  1
  O  O1117  1  0.23110000  0.57080000  0.57080000  1
  O  O1118  1  0.92920000  0.26890000  0.07080000  1
  O  O1119  1  0.42920000  0.76890000  0.57080000  1
  O  O1120  1  0.92920000  0.07080000  0.26890000  1
  O  O1121  1  0.42920000  0.57080000  0.76890000  1
  O  O1122  1  0.73110000  0.07080000  0.92920000  1
  O  O1123  1  0.23110000  0.57080000  0.42920000  1
  O  O1124  1  0.92920000  0.26890000  0.92920000  1
  O  O1125  1  0.42920000  0.76890000  0.42920000  1
  O  O1126  1  0.92920000  0.07080000  0.73110000  1
  O  O1127  1  0.42920000  0.57080000  0.23110000  1
  O  O1128  1  0.07080000  0.73110000  0.07080000  1
  O  O1129  1  0.57080000  0.23110000  0.57080000  1
  O  O1130  1  0.26890000  0.92920000  0.07080000  1
  O  O1131  1  0.76890000  0.42920000  0.57080000  1
  O  O1132  1  0.07080000  0.92920000  0.26890000  1
  O  O1133  1  0.57080000  0.42920000  0.76890000  1
  O  O1134  1  0.07080000  0.73110000  0.92920000  1
  O  O1135  1  0.57080000  0.23110000  0.42920000  1
  O  O1136  1  0.26890000  0.92920000  0.92920000  1
  O  O1137  1  0.76890000  0.42920000  0.42920000  1
  O  O1138  1  0.07080000  0.92920000  0.73110000  1
  O  O1139  1  0.57080000  0.42920000  0.23110000  1
  O  O1140  1  0.73110000  0.92920000  0.92920000  1
  O  O1141  1  0.23110000  0.42920000  0.42920000  1
  O  O1142  1  0.92920000  0.73110000  0.92920000  1
  O  O1143  1  0.42920000  0.23110000  0.42920000  1
  O  O1144  1  0.92920000  0.92920000  0.73110000  1
  O  O1145  1  0.42920000  0.42920000  0.23110000  1
  O  O1146  1  0.73110000  0.92920000  0.07080000  1
  O  O1147  1  0.23110000  0.42920000  0.57080000  1
  O  O1148  1  0.92920000  0.73110000  0.07080000  1
  O  O1149  1  0.42920000  0.23110000  0.57080000  1
  O  O1150  1  0.92920000  0.92920000  0.26890000  1
  O  O1151  1  0.42920000  0.42920000  0.76890000  1
  O  O1152  1  0.16320000  0.09660000  0.00000000  1
  O  O1153  1  0.66320000  0.59660000  0.50000000  1
  O  O1154  1  0.00000000  0.16320000  0.09660000  1
  O  O1155  1  0.50000000  0.66320000  0.59660000  1
  O  O1156  1  0.09660000  0.00000000  0.16320000  1
  O  O1157  1  0.59660000  0.50000000  0.66320000  1
  O  O1158  1  0.00000000  0.16320000  0.90340000  1
  O  O1159  1  0.50000000  0.66320000  0.40340000  1
  O  O1160  1  0.09660000  0.00000000  0.83680000  1
  O  O1161  1  0.59660000  0.50000000  0.33680000  1
  O  O1162  1  0.83680000  0.09660000  0.00000000  1
  O  O1163  1  0.33680000  0.59660000  0.50000000  1
  O  O1164  1  0.90340000  0.00000000  0.16320000  1
  O  O1165  1  0.40340000  0.50000000  0.66320000  1
  O  O1166  1  0.90340000  0.00000000  0.83680000  1
  O  O1167  1  0.40340000  0.50000000  0.33680000  1
  O  O1168  1  0.09660000  0.16320000  0.00000000  1
  O  O1169  1  0.59660000  0.66320000  0.50000000  1
  O  O1170  1  0.16320000  0.00000000  0.09660000  1
  O  O1171  1  0.66320000  0.50000000  0.59660000  1
  O  O1172  1  0.00000000  0.09660000  0.16320000  1
  O  O1173  1  0.50000000  0.59660000  0.66320000  1
  O  O1174  1  0.16320000  0.00000000  0.90340000  1
  O  O1175  1  0.66320000  0.50000000  0.40340000  1
  O  O1176  1  0.00000000  0.09660000  0.83680000  1
  O  O1177  1  0.50000000  0.59660000  0.33680000  1
  O  O1178  1  0.09660000  0.83680000  0.00000000  1
  O  O1179  1  0.59660000  0.33680000  0.50000000  1
  O  O1180  1  0.00000000  0.90340000  0.16320000  1
  O  O1181  1  0.50000000  0.40340000  0.66320000  1
  O  O1182  1  0.00000000  0.90340000  0.83680000  1
  O  O1183  1  0.50000000  0.40340000  0.33680000  1
  O  O1184  1  0.83680000  0.90340000  0.00000000  1
  O  O1185  1  0.33680000  0.40340000  0.50000000  1
  O  O1186  1  0.00000000  0.83680000  0.90340000  1
  O  O1187  1  0.50000000  0.33680000  0.40340000  1
  O  O1188  1  0.00000000  0.83680000  0.09660000  1
  O  O1189  1  0.50000000  0.33680000  0.59660000  1
  O  O1190  1  0.16320000  0.90340000  0.00000000  1
  O  O1191  1  0.66320000  0.40340000  0.50000000  1
  O  O1192  1  0.90340000  0.83680000  0.00000000  1
  O  O1193  1  0.40340000  0.33680000  0.50000000  1
  O  O1194  1  0.83680000  0.00000000  0.90340000  1
  O  O1195  1  0.33680000  0.50000000  0.40340000  1
  O  O1196  1  0.83680000  0.00000000  0.09660000  1
  O  O1197  1  0.33680000  0.50000000  0.59660000  1
  O  O1198  1  0.90340000  0.16320000  0.00000000  1
  O  O1199  1  0.40340000  0.66320000  0.50000000  1
  O  O1200  1  0.15950000  0.07080000  0.07080000  1
  O  O1201  1  0.65950000  0.57080000  0.57080000  1
  O  O1202  1  0.07080000  0.15950000  0.07080000  1
  O  O1203  1  0.57080000  0.65950000  0.57080000  1
  O  O1204  1  0.07080000  0.07080000  0.15950000  1
  O  O1205  1  0.57080000  0.57080000  0.65950000  1
  O  O1206  1  0.15950000  0.07080000  0.92920000  1
  O  O1207  1  0.65950000  0.57080000  0.42920000  1
  O  O1208  1  0.07080000  0.15950000  0.92920000  1
  O  O1209  1  0.57080000  0.65950000  0.42920000  1
  O  O1210  1  0.07080000  0.07080000  0.84050000  1
  O  O1211  1  0.57080000  0.57080000  0.34050000  1
  O  O1212  1  0.84050000  0.07080000  0.07080000  1
  O  O1213  1  0.34050000  0.57080000  0.57080000  1
  O  O1214  1  0.92920000  0.15950000  0.07080000  1
  O  O1215  1  0.42920000  0.65950000  0.57080000  1
  O  O1216  1  0.92920000  0.07080000  0.15950000  1
  O  O1217  1  0.42920000  0.57080000  0.65950000  1
  O  O1218  1  0.84050000  0.07080000  0.92920000  1
  O  O1219  1  0.34050000  0.57080000  0.42920000  1
  O  O1220  1  0.92920000  0.15950000  0.92920000  1
  O  O1221  1  0.42920000  0.65950000  0.42920000  1
  O  O1222  1  0.92920000  0.07080000  0.84050000  1
  O  O1223  1  0.42920000  0.57080000  0.34050000  1
  O  O1224  1  0.07080000  0.84050000  0.07080000  1
  O  O1225  1  0.57080000  0.34050000  0.57080000  1
  O  O1226  1  0.15950000  0.92920000  0.07080000  1
  O  O1227  1  0.65950000  0.42920000  0.57080000  1
  O  O1228  1  0.07080000  0.92920000  0.15950000  1
  O  O1229  1  0.57080000  0.42920000  0.65950000  1
  O  O1230  1  0.07080000  0.84050000  0.92920000  1
  O  O1231  1  0.57080000  0.34050000  0.42920000  1
  O  O1232  1  0.15950000  0.92920000  0.92920000  1
  O  O1233  1  0.65950000  0.42920000  0.42920000  1
  O  O1234  1  0.07080000  0.92920000  0.84050000  1
  O  O1235  1  0.57080000  0.42920000  0.34050000  1
  O  O1236  1  0.84050000  0.92920000  0.92920000  1
  O  O1237  1  0.34050000  0.42920000  0.42920000  1
  O  O1238  1  0.92920000  0.84050000  0.92920000  1
  O  O1239  1  0.42920000  0.34050000  0.42920000  1
  O  O1240  1  0.92920000  0.92920000  0.84050000  1
  O  O1241  1  0.42920000  0.42920000  0.34050000  1
  O  O1242  1  0.84050000  0.92920000  0.07080000  1
  O  O1243  1  0.34050000  0.42920000  0.57080000  1
  O  O1244  1  0.92920000  0.84050000  0.07080000  1
  O  O1245  1  0.42920000  0.34050000  0.57080000  1
  O  O1246  1  0.92920000  0.92920000  0.15950000  1
  O  O1247  1  0.42920000  0.42920000  0.65950000  1
  O  O1248  1  0.14290000  0.14290000  0.05600000  1
  O  O1249  1  0.64290000  0.64290000  0.55600000  1
  O  O1250  1  0.05600000  0.14290000  0.14290000  1
  O  O1251  1  0.55600000  0.64290000  0.64290000  1
  O  O1252  1  0.14290000  0.05600000  0.14290000  1
  O  O1253  1  0.64290000  0.55600000  0.64290000  1
  O  O1254  1  0.14290000  0.14290000  0.94400000  1
  O  O1255  1  0.64290000  0.64290000  0.44400000  1
  O  O1256  1  0.05600000  0.14290000  0.85710000  1
  O  O1257  1  0.55600000  0.64290000  0.35710000  1
  O  O1258  1  0.14290000  0.05600000  0.85710000  1
  O  O1259  1  0.64290000  0.55600000  0.35710000  1
  O  O1260  1  0.85710000  0.14290000  0.05600000  1
  O  O1261  1  0.35710000  0.64290000  0.55600000  1
  O  O1262  1  0.94400000  0.14290000  0.14290000  1
  O  O1263  1  0.44400000  0.64290000  0.64290000  1
  O  O1264  1  0.85710000  0.05600000  0.14290000  1
  O  O1265  1  0.35710000  0.55600000  0.64290000  1
  O  O1266  1  0.85710000  0.14290000  0.94400000  1
  O  O1267  1  0.35710000  0.64290000  0.44400000  1
  O  O1268  1  0.94400000  0.14290000  0.85710000  1
  O  O1269  1  0.44400000  0.64290000  0.35710000  1
  O  O1270  1  0.85710000  0.05600000  0.85710000  1
  O  O1271  1  0.35710000  0.55600000  0.35710000  1
  O  O1272  1  0.14290000  0.85710000  0.05600000  1
  O  O1273  1  0.64290000  0.35710000  0.55600000  1
  O  O1274  1  0.14290000  0.94400000  0.14290000  1
  O  O1275  1  0.64290000  0.44400000  0.64290000  1
  O  O1276  1  0.05600000  0.85710000  0.14290000  1
  O  O1277  1  0.55600000  0.35710000  0.64290000  1
  O  O1278  1  0.14290000  0.85710000  0.94400000  1
  O  O1279  1  0.64290000  0.35710000  0.44400000  1
  O  O1280  1  0.14290000  0.94400000  0.85710000  1
  O  O1281  1  0.64290000  0.44400000  0.35710000  1
  O  O1282  1  0.05600000  0.85710000  0.85710000  1
  O  O1283  1  0.55600000  0.35710000  0.35710000  1
  O  O1284  1  0.85710000  0.85710000  0.94400000  1
  O  O1285  1  0.35710000  0.35710000  0.44400000  1
  O  O1286  1  0.94400000  0.85710000  0.85710000  1
  O  O1287  1  0.44400000  0.35710000  0.35710000  1
  O  O1288  1  0.85710000  0.94400000  0.85710000  1
  O  O1289  1  0.35710000  0.44400000  0.35710000  1
  O  O1290  1  0.85710000  0.85710000  0.05600000  1
  O  O1291  1  0.35710000  0.35710000  0.55600000  1
  O  O1292  1  0.94400000  0.85710000  0.14290000  1
  O  O1293  1  0.44400000  0.35710000  0.64290000  1
  O  O1294  1  0.85710000  0.94400000  0.14290000  1
  O  O1295  1  0.35710000  0.44400000  0.64290000  1
  O  O1296  1  0.30220000  0.21400000  0.21400000  1
  O  O1297  1  0.80220000  0.71400000  0.71400000  1
  O  O1298  1  0.21400000  0.30220000  0.21400000  1
  O  O1299  1  0.71400000  0.80220000  0.71400000  1
  O  O1300  1  0.21400000  0.21400000  0.30220000  1
  O  O1301  1  0.71400000  0.71400000  0.80220000  1
  O  O1302  1  0.30220000  0.21400000  0.78600000  1
  O  O1303  1  0.80220000  0.71400000  0.28600000  1
  O  O1304  1  0.21400000  0.30220000  0.78600000  1
  O  O1305  1  0.71400000  0.80220000  0.28600000  1
  O  O1306  1  0.21400000  0.21400000  0.69780000  1
  O  O1307  1  0.71400000  0.71400000  0.19780000  1
  O  O1308  1  0.69780000  0.21400000  0.21400000  1
  O  O1309  1  0.19780000  0.71400000  0.71400000  1
  O  O1310  1  0.78600000  0.30220000  0.21400000  1
  O  O1311  1  0.28600000  0.80220000  0.71400000  1
  O  O1312  1  0.78600000  0.21400000  0.30220000  1
  O  O1313  1  0.28600000  0.71400000  0.80220000  1
  O  O1314  1  0.69780000  0.21400000  0.78600000  1
  O  O1315  1  0.19780000  0.71400000  0.28600000  1
  O  O1316  1  0.78600000  0.30220000  0.78600000  1
  O  O1317  1  0.28600000  0.80220000  0.28600000  1
  O  O1318  1  0.78600000  0.21400000  0.69780000  1
  O  O1319  1  0.28600000  0.71400000  0.19780000  1
  O  O1320  1  0.21400000  0.69780000  0.21400000  1
  O  O1321  1  0.71400000  0.19780000  0.71400000  1
  O  O1322  1  0.30220000  0.78600000  0.21400000  1
  O  O1323  1  0.80220000  0.28600000  0.71400000  1
  O  O1324  1  0.21400000  0.78600000  0.30220000  1
  O  O1325  1  0.71400000  0.28600000  0.80220000  1
  O  O1326  1  0.21400000  0.69780000  0.78600000  1
  O  O1327  1  0.71400000  0.19780000  0.28600000  1
  O  O1328  1  0.30220000  0.78600000  0.78600000  1
  O  O1329  1  0.80220000  0.28600000  0.28600000  1
  O  O1330  1  0.21400000  0.78600000  0.69780000  1
  O  O1331  1  0.71400000  0.28600000  0.19780000  1
  O  O1332  1  0.69780000  0.78600000  0.78600000  1
  O  O1333  1  0.19780000  0.28600000  0.28600000  1
  O  O1334  1  0.78600000  0.69780000  0.78600000  1
  O  O1335  1  0.28600000  0.19780000  0.28600000  1
  O  O1336  1  0.78600000  0.78600000  0.69780000  1
  O  O1337  1  0.28600000  0.28600000  0.19780000  1
  O  O1338  1  0.69780000  0.78600000  0.21400000  1
  O  O1339  1  0.19780000  0.28600000  0.71400000  1
  O  O1340  1  0.78600000  0.69780000  0.21400000  1
  O  O1341  1  0.28600000  0.19780000  0.71400000  1
  O  O1342  1  0.78600000  0.78600000  0.30220000  1
  O  O1343  1  0.28600000  0.28600000  0.80220000  1
