# generated using pymatgen
data_Ce
_symmetry_space_group_name_H-M   'P 1'
_cell_length_a   9.22750000
_cell_length_b   9.77100000
_cell_length_c   10.69900000
_cell_angle_alpha   67.81000000
_cell_angle_beta   84.49000000
_cell_angle_gamma   61.84000000
_symmetry_Int_Tables_number   1
_chemical_formula_structural   Ce
_chemical_formula_sum   Ce2
_cell_volume   783.46808035
_cell_formula_units_Z   2
loop_
 _symmetry_equiv_pos_site_id
 _symmetry_equiv_pos_as_xyz
  1  'x, y, z'
loop_
 _atom_site_type_symbol
 _atom_site_label
 _atom_site_symmetry_multiplicity
 _atom_site_fract_x
 _atom_site_fract_y
 _atom_site_fract_z
 _atom_site_occupancy
  Ce  Ce0  1  0.72285000  0.04384000  0.98314000  1
  Ce  Ce1  1  0.27715000  0.95616000  0.01686000  1
