# generated using pymatgen
data_K2CaZr
_symmetry_space_group_name_H-M   'P 1'
_cell_length_a   8.92000000
_cell_length_b   9.17670000
_cell_length_c   9.17670000
_cell_angle_alpha   76.33710000
_cell_angle_beta   60.92110000
_cell_angle_gamma   60.92120000
_symmetry_Int_Tables_number   1
_chemical_formula_structural   K2CaZr
_chemical_formula_sum   'K2 Ca1 Zr1'
_cell_volume   573.73688846
_cell_formula_units_Z   1
loop_
 _symmetry_equiv_pos_site_id
 _symmetry_equiv_pos_as_xyz
  1  'x, y, z'
loop_
 _atom_site_type_symbol
 _atom_site_label
 _atom_site_symmetry_multiplicity
 _atom_site_fract_x
 _atom_site_fract_y
 _atom_site_fract_z
 _atom_site_occupancy
  K  K0  1  0.50000000  0.00000000  0.00000000  1
  K  K1  1  0.25000000  0.50000000  0.50000000  1
  Ca  Ca2  1  0.75000000  0.50000000  0.50000000  1
  Zr  Zr3  1  0.00000000  0.00000000  0.00000000  1
