# generated using pymatgen
data_Si
_symmetry_space_group_name_H-M   'P 1'
_cell_length_a   20.15280000
_cell_length_b   20.15280000
_cell_length_c   109.75630000
_cell_angle_alpha   90.00000000
_cell_angle_beta   90.00000000
_cell_angle_gamma   90.00000000
_symmetry_Int_Tables_number   1
_chemical_formula_structural   Si
_chemical_formula_sum   Si784
_cell_volume   44575.91307813
_cell_formula_units_Z   784
loop_
 _symmetry_equiv_pos_site_id
 _symmetry_equiv_pos_as_xyz
  1  'x, y, z'
loop_
 _atom_site_type_symbol
 _atom_site_label
 _atom_site_symmetry_multiplicity
 _atom_site_fract_x
 _atom_site_fract_y
 _atom_site_fract_z
 _atom_site_occupancy
  Si  Si0  1  0.21860000  0.07570000  0.26100000  1
  Si  Si1  1  0.78140000  0.92430000  0.26100000  1
  Si  Si2  1  0.07570000  0.78140000  0.73900000  1
  Si  Si3  1  0.92430000  0.21860000  0.73900000  1
  Si  Si4  1  0.21860000  0.92430000  0.26100000  1
  Si  Si5  1  0.78140000  0.07570000  0.26100000  1
  Si  Si6  1  0.07570000  0.21860000  0.73900000  1
  Si  Si7  1  0.92430000  0.78140000  0.73900000  1
  Si  Si8  1  0.27920000  0.07550000  0.33060000  1
  Si  Si9  1  0.72080000  0.92450000  0.33060000  1
  Si  Si10  1  0.07550000  0.72080000  0.66940000  1
  Si  Si11  1  0.92450000  0.27920000  0.66940000  1
  Si  Si12  1  0.27920000  0.92450000  0.33060000  1
  Si  Si13  1  0.72080000  0.07550000  0.33060000  1
  Si  Si14  1  0.07550000  0.27920000  0.66940000  1
  Si  Si15  1  0.92450000  0.72080000  0.66940000  1
  Si  Si16  1  0.27770000  0.31940000  0.33080000  1
  Si  Si17  1  0.72230000  0.68060000  0.33080000  1
  Si  Si18  1  0.31940000  0.72230000  0.66920000  1
  Si  Si19  1  0.68060000  0.27770000  0.66920000  1
  Si  Si20  1  0.27770000  0.68060000  0.33080000  1
  Si  Si21  1  0.72230000  0.31940000  0.33080000  1
  Si  Si22  1  0.31940000  0.27770000  0.66920000  1
  Si  Si23  1  0.68060000  0.72230000  0.66920000  1
  Si  Si24  1  0.07730000  0.20040000  0.34480000  1
  Si  Si25  1  0.92270000  0.79960000  0.34480000  1
  Si  Si26  1  0.20040000  0.92270000  0.65520000  1
  Si  Si27  1  0.79960000  0.07730000  0.65520000  1
  Si  Si28  1  0.07730000  0.79960000  0.34480000  1
  Si  Si29  1  0.92270000  0.20040000  0.34480000  1
  Si  Si30  1  0.20040000  0.07730000  0.65520000  1
  Si  Si31  1  0.79960000  0.92270000  0.65520000  1
  Si  Si32  1  0.42380000  0.19390000  0.24600000  1
  Si  Si33  1  0.57620000  0.80610000  0.24600000  1
  Si  Si34  1  0.19390000  0.57620000  0.75400000  1
  Si  Si35  1  0.80610000  0.42380000  0.75400000  1
  Si  Si36  1  0.42380000  0.80610000  0.24600000  1
  Si  Si37  1  0.57620000  0.19390000  0.24600000  1
  Si  Si38  1  0.19390000  0.42380000  0.75400000  1
  Si  Si39  1  0.80610000  0.57620000  0.75400000  1
  Si  Si40  1  0.18300000  0.18660000  0.24440000  1
  Si  Si41  1  0.81700000  0.81340000  0.24440000  1
  Si  Si42  1  0.18660000  0.81700000  0.75560000  1
  Si  Si43  1  0.81340000  0.18300000  0.75560000  1
  Si  Si44  1  0.18300000  0.81340000  0.24440000  1
  Si  Si45  1  0.81700000  0.18660000  0.24440000  1
  Si  Si46  1  0.18660000  0.18300000  0.75560000  1
  Si  Si47  1  0.81340000  0.81700000  0.75560000  1
  Si  Si48  1  0.22000000  0.31550000  0.25980000  1
  Si  Si49  1  0.78000000  0.68450000  0.25980000  1
  Si  Si50  1  0.31550000  0.78000000  0.74020000  1
  Si  Si51  1  0.68450000  0.22000000  0.74020000  1
  Si  Si52  1  0.22000000  0.68450000  0.25980000  1
  Si  Si53  1  0.78000000  0.31550000  0.25980000  1
  Si  Si54  1  0.31550000  0.22000000  0.74020000  1
  Si  Si55  1  0.68450000  0.78000000  0.74020000  1
  Si  Si56  1  0.07640000  0.42520000  0.34880000  1
  Si  Si57  1  0.92360000  0.57480000  0.34880000  1
  Si  Si58  1  0.42520000  0.92360000  0.65120000  1
  Si  Si59  1  0.57480000  0.07640000  0.65120000  1
  Si  Si60  1  0.07640000  0.57480000  0.34880000  1
  Si  Si61  1  0.92360000  0.42520000  0.34880000  1
  Si  Si62  1  0.42520000  0.07640000  0.65120000  1
  Si  Si63  1  0.57480000  0.92360000  0.65120000  1
  Si  Si64  1  0.42370000  0.38500000  0.36830000  1
  Si  Si65  1  0.57630000  0.61500000  0.36830000  1
  Si  Si66  1  0.38500000  0.57630000  0.63170000  1
  Si  Si67  1  0.61500000  0.42370000  0.63170000  1
  Si  Si68  1  0.42370000  0.61500000  0.36830000  1
  Si  Si69  1  0.57630000  0.38500000  0.36830000  1
  Si  Si70  1  0.38500000  0.42370000  0.63170000  1
  Si  Si71  1  0.61500000  0.57630000  0.63170000  1
  Si  Si72  1  0.19130000  0.37610000  0.36510000  1
  Si  Si73  1  0.80870000  0.62390000  0.36510000  1
  Si  Si74  1  0.37610000  0.80870000  0.63490000  1
  Si  Si75  1  0.62390000  0.19130000  0.63490000  1
  Si  Si76  1  0.19130000  0.62390000  0.36510000  1
  Si  Si77  1  0.80870000  0.37610000  0.36510000  1
  Si  Si78  1  0.37610000  0.19130000  0.63490000  1
  Si  Si79  1  0.62390000  0.80870000  0.63490000  1
  Si  Si80  1  0.37660000  0.42470000  0.39410000  1
  Si  Si81  1  0.62340000  0.57530000  0.39410000  1
  Si  Si82  1  0.42470000  0.62340000  0.60590000  1
  Si  Si83  1  0.57530000  0.37660000  0.60590000  1
  Si  Si84  1  0.37660000  0.57530000  0.39410000  1
  Si  Si85  1  0.62340000  0.42470000  0.39410000  1
  Si  Si86  1  0.42470000  0.37660000  0.60590000  1
  Si  Si87  1  0.57530000  0.62340000  0.60590000  1
  Si  Si88  1  0.31370000  0.42600000  0.34940000  1
  Si  Si89  1  0.68630000  0.57400000  0.34940000  1
  Si  Si90  1  0.42600000  0.68630000  0.65060000  1
  Si  Si91  1  0.57400000  0.31370000  0.65060000  1
  Si  Si92  1  0.31370000  0.57400000  0.34940000  1
  Si  Si93  1  0.68630000  0.42600000  0.34940000  1
  Si  Si94  1  0.42600000  0.31370000  0.65060000  1
  Si  Si95  1  0.57400000  0.68630000  0.65060000  1
  Si  Si96  1  0.07460000  0.37420000  0.22290000  1
  Si  Si97  1  0.92540000  0.62580000  0.22290000  1
  Si  Si98  1  0.37420000  0.92540000  0.77710000  1
  Si  Si99  1  0.62580000  0.07460000  0.77710000  1
  Si  Si100  1  0.07460000  0.62580000  0.22290000  1
  Si  Si101  1  0.92540000  0.37420000  0.22290000  1
  Si  Si102  1  0.37420000  0.07460000  0.77710000  1
  Si  Si103  1  0.62580000  0.92540000  0.77710000  1
  Si  Si104  1  0.12170000  0.32520000  0.32940000  1
  Si  Si105  1  0.87830000  0.67480000  0.32940000  1
  Si  Si106  1  0.32520000  0.87830000  0.67060000  1
  Si  Si107  1  0.67480000  0.12170000  0.67060000  1
  Si  Si108  1  0.12170000  0.67480000  0.32940000  1
  Si  Si109  1  0.87830000  0.32520000  0.32940000  1
  Si  Si110  1  0.32520000  0.12170000  0.67060000  1
  Si  Si111  1  0.67480000  0.87830000  0.67060000  1
  Si  Si112  1  0.07600000  0.12570000  0.30570000  1
  Si  Si113  1  0.92400000  0.87430000  0.30570000  1
  Si  Si114  1  0.12570000  0.92400000  0.69430000  1
  Si  Si115  1  0.87430000  0.07600000  0.69430000  1
  Si  Si116  1  0.07600000  0.87430000  0.30570000  1
  Si  Si117  1  0.92400000  0.12570000  0.30570000  1
  Si  Si118  1  0.12570000  0.07600000  0.69430000  1
  Si  Si119  1  0.87430000  0.92400000  0.69430000  1
  Si  Si120  1  0.31090000  0.12140000  0.30470000  1
  Si  Si121  1  0.68910000  0.87860000  0.30470000  1
  Si  Si122  1  0.12140000  0.68910000  0.69530000  1
  Si  Si123  1  0.87860000  0.31090000  0.69530000  1
  Si  Si124  1  0.31090000  0.87860000  0.30470000  1
  Si  Si125  1  0.68910000  0.12140000  0.30470000  1
  Si  Si126  1  0.12140000  0.31090000  0.69530000  1
  Si  Si127  1  0.87860000  0.68910000  0.69530000  1
  Si  Si128  1  0.42400000  0.12320000  0.28580000  1
  Si  Si129  1  0.57600000  0.87680000  0.28580000  1
  Si  Si130  1  0.12320000  0.57600000  0.71420000  1
  Si  Si131  1  0.87680000  0.42400000  0.71420000  1
  Si  Si132  1  0.42400000  0.87680000  0.28580000  1
  Si  Si133  1  0.57600000  0.12320000  0.28580000  1
  Si  Si134  1  0.12320000  0.42400000  0.71420000  1
  Si  Si135  1  0.87680000  0.57600000  0.71420000  1
  Si  Si136  1  0.22170000  0.42260000  0.39180000  1
  Si  Si137  1  0.77830000  0.57740000  0.39180000  1
  Si  Si138  1  0.42260000  0.77830000  0.60820000  1
  Si  Si139  1  0.57740000  0.22170000  0.60820000  1
  Si  Si140  1  0.22170000  0.57740000  0.39180000  1
  Si  Si141  1  0.77830000  0.42260000  0.39180000  1
  Si  Si142  1  0.42260000  0.22170000  0.60820000  1
  Si  Si143  1  0.57740000  0.77830000  0.60820000  1
  Si  Si144  1  0.42310000  0.42470000  0.24270000  1
  Si  Si145  1  0.57690000  0.57530000  0.24270000  1
  Si  Si146  1  0.42470000  0.57690000  0.75730000  1
  Si  Si147  1  0.57530000  0.42310000  0.75730000  1
  Si  Si148  1  0.42310000  0.57530000  0.24270000  1
  Si  Si149  1  0.57690000  0.42470000  0.24270000  1
  Si  Si150  1  0.42470000  0.42310000  0.75730000  1
  Si  Si151  1  0.57530000  0.57690000  0.75730000  1
  Si  Si152  1  0.19240000  0.12010000  0.28720000  1
  Si  Si153  1  0.80760000  0.87990000  0.28720000  1
  Si  Si154  1  0.12010000  0.80760000  0.71280000  1
  Si  Si155  1  0.87990000  0.19240000  0.71280000  1
  Si  Si156  1  0.19240000  0.87990000  0.28720000  1
  Si  Si157  1  0.80760000  0.12010000  0.28720000  1
  Si  Si158  1  0.12010000  0.19240000  0.71280000  1
  Si  Si159  1  0.87990000  0.80760000  0.71280000  1
  Si  Si160  1  0.18390000  0.42520000  0.24160000  1
  Si  Si161  1  0.81610000  0.57480000  0.24160000  1
  Si  Si162  1  0.42520000  0.81610000  0.75840000  1
  Si  Si163  1  0.57480000  0.18390000  0.75840000  1
  Si  Si164  1  0.18390000  0.57480000  0.24160000  1
  Si  Si165  1  0.81610000  0.42520000  0.24160000  1
  Si  Si166  1  0.42520000  0.18390000  0.75840000  1
  Si  Si167  1  0.57480000  0.81610000  0.75840000  1
  Si  Si168  1  0.30890000  0.18990000  0.47000000  1
  Si  Si169  1  0.69110000  0.81010000  0.47000000  1
  Si  Si170  1  0.18990000  0.69110000  0.53000000  1
  Si  Si171  1  0.81010000  0.30890000  0.53000000  1
  Si  Si172  1  0.30890000  0.81010000  0.47000000  1
  Si  Si173  1  0.69110000  0.18990000  0.47000000  1
  Si  Si174  1  0.18990000  0.30890000  0.53000000  1
  Si  Si175  1  0.81010000  0.69110000  0.53000000  1
  Si  Si176  1  0.19100000  0.30500000  0.40810000  1
  Si  Si177  1  0.80900000  0.69500000  0.40810000  1
  Si  Si178  1  0.30500000  0.80900000  0.59190000  1
  Si  Si179  1  0.69500000  0.19100000  0.59190000  1
  Si  Si180  1  0.19100000  0.69500000  0.40810000  1
  Si  Si181  1  0.80900000  0.30500000  0.40810000  1
  Si  Si182  1  0.30500000  0.19100000  0.59190000  1
  Si  Si183  1  0.69500000  0.80900000  0.59190000  1
  Si  Si184  1  0.30830000  0.19240000  0.34670000  1
  Si  Si185  1  0.69170000  0.80760000  0.34670000  1
  Si  Si186  1  0.19240000  0.69170000  0.65330000  1
  Si  Si187  1  0.80760000  0.30830000  0.65330000  1
  Si  Si188  1  0.30830000  0.80760000  0.34670000  1
  Si  Si189  1  0.69170000  0.19240000  0.34670000  1
  Si  Si190  1  0.19240000  0.30830000  0.65330000  1
  Si  Si191  1  0.80760000  0.69170000  0.65330000  1
  Si  Si192  1  0.42290000  0.29720000  0.40720000  1
  Si  Si193  1  0.57710000  0.70280000  0.40720000  1
  Si  Si194  1  0.29720000  0.57710000  0.59280000  1
  Si  Si195  1  0.70280000  0.42290000  0.59280000  1
  Si  Si196  1  0.42290000  0.70280000  0.40720000  1
  Si  Si197  1  0.57710000  0.29720000  0.40720000  1
  Si  Si198  1  0.29720000  0.42290000  0.59280000  1
  Si  Si199  1  0.70280000  0.57710000  0.59280000  1
  Si  Si200  1  0.42380000  0.27770000  0.28620000  1
  Si  Si201  1  0.57620000  0.72230000  0.28620000  1
  Si  Si202  1  0.27770000  0.57620000  0.71380000  1
  Si  Si203  1  0.72230000  0.42380000  0.71380000  1
  Si  Si204  1  0.42380000  0.72230000  0.28620000  1
  Si  Si205  1  0.57620000  0.27770000  0.28620000  1
  Si  Si206  1  0.27770000  0.42380000  0.71380000  1
  Si  Si207  1  0.72230000  0.57620000  0.71380000  1
  Si  Si208  1  0.31000000  0.42570000  0.46970000  1
  Si  Si209  1  0.69000000  0.57430000  0.46970000  1
  Si  Si210  1  0.42570000  0.69000000  0.53030000  1
  Si  Si211  1  0.57430000  0.31000000  0.53030000  1
  Si  Si212  1  0.31000000  0.57430000  0.46970000  1
  Si  Si213  1  0.69000000  0.42570000  0.46970000  1
  Si  Si214  1  0.42570000  0.31000000  0.53030000  1
  Si  Si215  1  0.57430000  0.69000000  0.53030000  1
  Si  Si216  1  0.07720000  0.19890000  0.46690000  1
  Si  Si217  1  0.92280000  0.80110000  0.46690000  1
  Si  Si218  1  0.19890000  0.92280000  0.53310000  1
  Si  Si219  1  0.80110000  0.07720000  0.53310000  1
  Si  Si220  1  0.07720000  0.80110000  0.46690000  1
  Si  Si221  1  0.92280000  0.19890000  0.46690000  1
  Si  Si222  1  0.19890000  0.07720000  0.53310000  1
  Si  Si223  1  0.80110000  0.92280000  0.53310000  1
  Si  Si224  1  0.30380000  0.21730000  0.22860000  1
  Si  Si225  1  0.69620000  0.78270000  0.22860000  1
  Si  Si226  1  0.21730000  0.69620000  0.77140000  1
  Si  Si227  1  0.78270000  0.30380000  0.77140000  1
  Si  Si228  1  0.30380000  0.78270000  0.22860000  1
  Si  Si229  1  0.69620000  0.21730000  0.22860000  1
  Si  Si230  1  0.21730000  0.30380000  0.77140000  1
  Si  Si231  1  0.78270000  0.69620000  0.77140000  1
  Si  Si232  1  0.07890000  0.22190000  0.22430000  1
  Si  Si233  1  0.92110000  0.77810000  0.22430000  1
  Si  Si234  1  0.22190000  0.92110000  0.77570000  1
  Si  Si235  1  0.77810000  0.07890000  0.77570000  1
  Si  Si236  1  0.07890000  0.77810000  0.22430000  1
  Si  Si237  1  0.92110000  0.22190000  0.22430000  1
  Si  Si238  1  0.22190000  0.07890000  0.77570000  1
  Si  Si239  1  0.77810000  0.92110000  0.77570000  1
  Si  Si240  1  0.42410000  0.27150000  0.16530000  1
  Si  Si241  1  0.57590000  0.72850000  0.16530000  1
  Si  Si242  1  0.27150000  0.57590000  0.83470000  1
  Si  Si243  1  0.72850000  0.42410000  0.83470000  1
  Si  Si244  1  0.42410000  0.72850000  0.16530000  1
  Si  Si245  1  0.57590000  0.27150000  0.16530000  1
  Si  Si246  1  0.27150000  0.42410000  0.83470000  1
  Si  Si247  1  0.72850000  0.57590000  0.83470000  1
  Si  Si248  1  0.07610000  0.22720000  0.10400000  1
  Si  Si249  1  0.92390000  0.77280000  0.10400000  1
  Si  Si250  1  0.22720000  0.92390000  0.89600000  1
  Si  Si251  1  0.77280000  0.07610000  0.89600000  1
  Si  Si252  1  0.07610000  0.77280000  0.10400000  1
  Si  Si253  1  0.92390000  0.22720000  0.10400000  1
  Si  Si254  1  0.22720000  0.07610000  0.89600000  1
  Si  Si255  1  0.77280000  0.92390000  0.89600000  1
  Si  Si256  1  0.07690000  0.29900000  0.18290000  1
  Si  Si257  1  0.92310000  0.70100000  0.18290000  1
  Si  Si258  1  0.29900000  0.92310000  0.81710000  1
  Si  Si259  1  0.70100000  0.07690000  0.81710000  1
  Si  Si260  1  0.07690000  0.70100000  0.18290000  1
  Si  Si261  1  0.92310000  0.29900000  0.18290000  1
  Si  Si262  1  0.29900000  0.07690000  0.81710000  1
  Si  Si263  1  0.70100000  0.92310000  0.81710000  1
  Si  Si264  1  0.19370000  0.27630000  0.28660000  1
  Si  Si265  1  0.80630000  0.72370000  0.28660000  1
  Si  Si266  1  0.27630000  0.80630000  0.71340000  1
  Si  Si267  1  0.72370000  0.19370000  0.71340000  1
  Si  Si268  1  0.19370000  0.72370000  0.28660000  1
  Si  Si269  1  0.80630000  0.27630000  0.28660000  1
  Si  Si270  1  0.27630000  0.19370000  0.71340000  1
  Si  Si271  1  0.72370000  0.80630000  0.71340000  1
  Si  Si272  1  0.19220000  0.37360000  0.48700000  1
  Si  Si273  1  0.80780000  0.62640000  0.48700000  1
  Si  Si274  1  0.37360000  0.80780000  0.51300000  1
  Si  Si275  1  0.62640000  0.19220000  0.51300000  1
  Si  Si276  1  0.19220000  0.62640000  0.48700000  1
  Si  Si277  1  0.80780000  0.37360000  0.48700000  1
  Si  Si278  1  0.37360000  0.19220000  0.51300000  1
  Si  Si279  1  0.62640000  0.80780000  0.51300000  1
  Si  Si280  1  0.12490000  0.32200000  0.45110000  1
  Si  Si281  1  0.87510000  0.67800000  0.45110000  1
  Si  Si282  1  0.32200000  0.87510000  0.54890000  1
  Si  Si283  1  0.67800000  0.12490000  0.54890000  1
  Si  Si284  1  0.12490000  0.67800000  0.45110000  1
  Si  Si285  1  0.87510000  0.32200000  0.45110000  1
  Si  Si286  1  0.32200000  0.12490000  0.54890000  1
  Si  Si287  1  0.67800000  0.87510000  0.54890000  1
  Si  Si288  1  0.31340000  0.31350000  0.18290000  1
  Si  Si289  1  0.68660000  0.68650000  0.18290000  1
  Si  Si290  1  0.31350000  0.68660000  0.81710000  1
  Si  Si291  1  0.68650000  0.31340000  0.81710000  1
  Si  Si292  1  0.31340000  0.68650000  0.18290000  1
  Si  Si293  1  0.68660000  0.31350000  0.18290000  1
  Si  Si294  1  0.31350000  0.31340000  0.81710000  1
  Si  Si295  1  0.68650000  0.68660000  0.81710000  1
  Si  Si296  1  0.07650000  0.27550000  0.42650000  1
  Si  Si297  1  0.92350000  0.72450000  0.42650000  1
  Si  Si298  1  0.27550000  0.92350000  0.57350000  1
  Si  Si299  1  0.72450000  0.07650000  0.57350000  1
  Si  Si300  1  0.07650000  0.72450000  0.42650000  1
  Si  Si301  1  0.92350000  0.27550000  0.42650000  1
  Si  Si302  1  0.27550000  0.07650000  0.57350000  1
  Si  Si303  1  0.72450000  0.92350000  0.57350000  1
  Si  Si304  1  0.19460000  0.27520000  0.16490000  1
  Si  Si305  1  0.80540000  0.72480000  0.16490000  1
  Si  Si306  1  0.27520000  0.80540000  0.83510000  1
  Si  Si307  1  0.72480000  0.19460000  0.83510000  1
  Si  Si308  1  0.19460000  0.72480000  0.16490000  1
  Si  Si309  1  0.80540000  0.27520000  0.16490000  1
  Si  Si310  1  0.27520000  0.19460000  0.83510000  1
  Si  Si311  1  0.72480000  0.80540000  0.83510000  1
  Si  Si312  1  0.31030000  0.21220000  0.10540000  1
  Si  Si313  1  0.68970000  0.78780000  0.10540000  1
  Si  Si314  1  0.21220000  0.68970000  0.89460000  1
  Si  Si315  1  0.78780000  0.31030000  0.89460000  1
  Si  Si316  1  0.31030000  0.78780000  0.10540000  1
  Si  Si317  1  0.68970000  0.21220000  0.10540000  1
  Si  Si318  1  0.21220000  0.31030000  0.89460000  1
  Si  Si319  1  0.78780000  0.68970000  0.89460000  1
  Si  Si320  1  0.07760000  0.42380000  0.47060000  1
  Si  Si321  1  0.92240000  0.57620000  0.47060000  1
  Si  Si322  1  0.42380000  0.92240000  0.52940000  1
  Si  Si323  1  0.57620000  0.07760000  0.52940000  1
  Si  Si324  1  0.07760000  0.57620000  0.47060000  1
  Si  Si325  1  0.92240000  0.42380000  0.47060000  1
  Si  Si326  1  0.42380000  0.07760000  0.52940000  1
  Si  Si327  1  0.57620000  0.92240000  0.52940000  1
  Si  Si328  1  0.07660000  0.27910000  0.30450000  1
  Si  Si329  1  0.92340000  0.72090000  0.30450000  1
  Si  Si330  1  0.27910000  0.92340000  0.69550000  1
  Si  Si331  1  0.72090000  0.07660000  0.69550000  1
  Si  Si332  1  0.07660000  0.72090000  0.30450000  1
  Si  Si333  1  0.92340000  0.27910000  0.30450000  1
  Si  Si334  1  0.27910000  0.07660000  0.69550000  1
  Si  Si335  1  0.72090000  0.92340000  0.69550000  1
  Si  Si336  1  0.42520000  0.38860000  0.48700000  1
  Si  Si337  1  0.57480000  0.61140000  0.48700000  1
  Si  Si338  1  0.38860000  0.57480000  0.51300000  1
  Si  Si339  1  0.61140000  0.42520000  0.51300000  1
  Si  Si340  1  0.42520000  0.61140000  0.48700000  1
  Si  Si341  1  0.57480000  0.38860000  0.48700000  1
  Si  Si342  1  0.38860000  0.42520000  0.51300000  1
  Si  Si343  1  0.61140000  0.57480000  0.51300000  1
  Si  Si344  1  0.30770000  0.11500000  0.42580000  1
  Si  Si345  1  0.69230000  0.88500000  0.42580000  1
  Si  Si346  1  0.11500000  0.69230000  0.57420000  1
  Si  Si347  1  0.88500000  0.30770000  0.57420000  1
  Si  Si348  1  0.30770000  0.88500000  0.42580000  1
  Si  Si349  1  0.69230000  0.11500000  0.42580000  1
  Si  Si350  1  0.11500000  0.30770000  0.57420000  1
  Si  Si351  1  0.88500000  0.69230000  0.57420000  1
  Si  Si352  1  0.42610000  0.18590000  0.12130000  1
  Si  Si353  1  0.57390000  0.81410000  0.12130000  1
  Si  Si354  1  0.18590000  0.57390000  0.87870000  1
  Si  Si355  1  0.81410000  0.42610000  0.87870000  1
  Si  Si356  1  0.42610000  0.81410000  0.12130000  1
  Si  Si357  1  0.57390000  0.18590000  0.12130000  1
  Si  Si358  1  0.18590000  0.42610000  0.87870000  1
  Si  Si359  1  0.81410000  0.57390000  0.87870000  1
  Si  Si360  1  0.30670000  0.26970000  0.42550000  1
  Si  Si361  1  0.69330000  0.73030000  0.42550000  1
  Si  Si362  1  0.26970000  0.69330000  0.57450000  1
  Si  Si363  1  0.73030000  0.30670000  0.57450000  1
  Si  Si364  1  0.30670000  0.73030000  0.42550000  1
  Si  Si365  1  0.69330000  0.26970000  0.42550000  1
  Si  Si366  1  0.26970000  0.30670000  0.57450000  1
  Si  Si367  1  0.73030000  0.69330000  0.57450000  1
  Si  Si368  1  0.18380000  0.19390000  0.12290000  1
  Si  Si369  1  0.81620000  0.80610000  0.12290000  1
  Si  Si370  1  0.19390000  0.81620000  0.87710000  1
  Si  Si371  1  0.80610000  0.18380000  0.87710000  1
  Si  Si372  1  0.18380000  0.80610000  0.12290000  1
  Si  Si373  1  0.81620000  0.19390000  0.12290000  1
  Si  Si374  1  0.19390000  0.18380000  0.87710000  1
  Si  Si375  1  0.80610000  0.81620000  0.87710000  1
  Si  Si376  1  0.42260000  0.27560000  0.04420000  1
  Si  Si377  1  0.57740000  0.72440000  0.04420000  1
  Si  Si378  1  0.27560000  0.57740000  0.95580000  1
  Si  Si379  1  0.72440000  0.42260000  0.95580000  1
  Si  Si380  1  0.42260000  0.72440000  0.04420000  1
  Si  Si381  1  0.57740000  0.27560000  0.04420000  1
  Si  Si382  1  0.27560000  0.42260000  0.95580000  1
  Si  Si383  1  0.72440000  0.57740000  0.95580000  1
  Si  Si384  1  0.19870000  0.19870000  0.00000000  1
  Si  Si385  1  0.80130000  0.80130000  0.00000000  1
  Si  Si386  1  0.19870000  0.80130000  0.00000000  1
  Si  Si387  1  0.80130000  0.19870000  0.00000000  1
  Si  Si388  1  0.18820000  0.07540000  0.40940000  1
  Si  Si389  1  0.81180000  0.92460000  0.40940000  1
  Si  Si390  1  0.07540000  0.81180000  0.59060000  1
  Si  Si391  1  0.92460000  0.18820000  0.59060000  1
  Si  Si392  1  0.18820000  0.92460000  0.40940000  1
  Si  Si393  1  0.81180000  0.07540000  0.40940000  1
  Si  Si394  1  0.07540000  0.18820000  0.59060000  1
  Si  Si395  1  0.92460000  0.81180000  0.59060000  1
  Si  Si396  1  0.18810000  0.27790000  0.04280000  1
  Si  Si397  1  0.81190000  0.72210000  0.04280000  1
  Si  Si398  1  0.27790000  0.81190000  0.95720000  1
  Si  Si399  1  0.72210000  0.18810000  0.95720000  1
  Si  Si400  1  0.18810000  0.72210000  0.04280000  1
  Si  Si401  1  0.81190000  0.27790000  0.04280000  1
  Si  Si402  1  0.27790000  0.18810000  0.95720000  1
  Si  Si403  1  0.72210000  0.81190000  0.95720000  1
  Si  Si404  1  0.42680000  0.42680000  0.00000000  1
  Si  Si405  1  0.57320000  0.57320000  0.00000000  1
  Si  Si406  1  0.42680000  0.57320000  0.00000000  1
  Si  Si407  1  0.57320000  0.42680000  0.00000000  1
  Si  Si408  1  0.30630000  0.30910000  0.06150000  1
  Si  Si409  1  0.69370000  0.69090000  0.06150000  1
  Si  Si410  1  0.30910000  0.69370000  0.93850000  1
  Si  Si411  1  0.69090000  0.30630000  0.93850000  1
  Si  Si412  1  0.30630000  0.69090000  0.06150000  1
  Si  Si413  1  0.69370000  0.30910000  0.06150000  1
  Si  Si414  1  0.30910000  0.30630000  0.93850000  1
  Si  Si415  1  0.69090000  0.69370000  0.93850000  1
  Si  Si416  1  0.19050000  0.21950000  0.36400000  1
  Si  Si417  1  0.80950000  0.78050000  0.36400000  1
  Si  Si418  1  0.21950000  0.80950000  0.63600000  1
  Si  Si419  1  0.78050000  0.19050000  0.63600000  1
  Si  Si420  1  0.19050000  0.78050000  0.36400000  1
  Si  Si421  1  0.80950000  0.21950000  0.36400000  1
  Si  Si422  1  0.21950000  0.19050000  0.63600000  1
  Si  Si423  1  0.78050000  0.80950000  0.63600000  1
  Si  Si424  1  0.07500000  0.31100000  0.06120000  1
  Si  Si425  1  0.92500000  0.68900000  0.06120000  1
  Si  Si426  1  0.31100000  0.92500000  0.93880000  1
  Si  Si427  1  0.68900000  0.07500000  0.93880000  1
  Si  Si428  1  0.07500000  0.68900000  0.06120000  1
  Si  Si429  1  0.92500000  0.31100000  0.06120000  1
  Si  Si430  1  0.31100000  0.07500000  0.93880000  1
  Si  Si431  1  0.68900000  0.92500000  0.93880000  1
  Si  Si432  1  0.42360000  0.23500000  0.36440000  1
  Si  Si433  1  0.57640000  0.76500000  0.36440000  1
  Si  Si434  1  0.23500000  0.57640000  0.63560000  1
  Si  Si435  1  0.76500000  0.42360000  0.63560000  1
  Si  Si436  1  0.42360000  0.76500000  0.36440000  1
  Si  Si437  1  0.57640000  0.23500000  0.36440000  1
  Si  Si438  1  0.23500000  0.42360000  0.63560000  1
  Si  Si439  1  0.76500000  0.57640000  0.63560000  1
  Si  Si440  1  0.42250000  0.23680000  0.48730000  1
  Si  Si441  1  0.57750000  0.76320000  0.48730000  1
  Si  Si442  1  0.23680000  0.57750000  0.51270000  1
  Si  Si443  1  0.76320000  0.42250000  0.51270000  1
  Si  Si444  1  0.42250000  0.76320000  0.48730000  1
  Si  Si445  1  0.57750000  0.23680000  0.48730000  1
  Si  Si446  1  0.23680000  0.42250000  0.51270000  1
  Si  Si447  1  0.76320000  0.57750000  0.51270000  1
  Si  Si448  1  0.42470000  0.19410000  0.00310000  1
  Si  Si449  1  0.57530000  0.80590000  0.00310000  1
  Si  Si450  1  0.19410000  0.57530000  0.99690000  1
  Si  Si451  1  0.80590000  0.42470000  0.99690000  1
  Si  Si452  1  0.42470000  0.80590000  0.00310000  1
  Si  Si453  1  0.57530000  0.19410000  0.00310000  1
  Si  Si454  1  0.19410000  0.42470000  0.99690000  1
  Si  Si455  1  0.80590000  0.57530000  0.99690000  1
  Si  Si456  1  0.37890000  0.31690000  0.01830000  1
  Si  Si457  1  0.62110000  0.68310000  0.01830000  1
  Si  Si458  1  0.31690000  0.62110000  0.98170000  1
  Si  Si459  1  0.68310000  0.37890000  0.98170000  1
  Si  Si460  1  0.37890000  0.68310000  0.01830000  1
  Si  Si461  1  0.62110000  0.31690000  0.01830000  1
  Si  Si462  1  0.31690000  0.37890000  0.98170000  1
  Si  Si463  1  0.68310000  0.62110000  0.98170000  1
  Si  Si464  1  0.22260000  0.32310000  0.01720000  1
  Si  Si465  1  0.77740000  0.67690000  0.01720000  1
  Si  Si466  1  0.32310000  0.77740000  0.98280000  1
  Si  Si467  1  0.67690000  0.22260000  0.98280000  1
  Si  Si468  1  0.22260000  0.67690000  0.01720000  1
  Si  Si469  1  0.77740000  0.32310000  0.01720000  1
  Si  Si470  1  0.32310000  0.22260000  0.98280000  1
  Si  Si471  1  0.67690000  0.77740000  0.98280000  1
  Si  Si472  1  0.07790000  0.07630000  0.05910000  1
  Si  Si473  1  0.92210000  0.92370000  0.05910000  1
  Si  Si474  1  0.07630000  0.92210000  0.94090000  1
  Si  Si475  1  0.92370000  0.07790000  0.94090000  1
  Si  Si476  1  0.07790000  0.92370000  0.05910000  1
  Si  Si477  1  0.92210000  0.07630000  0.05910000  1
  Si  Si478  1  0.07630000  0.07790000  0.94090000  1
  Si  Si479  1  0.92370000  0.92210000  0.94090000  1
  Si  Si480  1  0.18870000  0.12160000  0.04090000  1
  Si  Si481  1  0.81130000  0.87840000  0.04090000  1
  Si  Si482  1  0.12160000  0.81130000  0.95910000  1
  Si  Si483  1  0.87840000  0.18870000  0.95910000  1
  Si  Si484  1  0.18870000  0.87840000  0.04090000  1
  Si  Si485  1  0.81130000  0.12160000  0.04090000  1
  Si  Si486  1  0.12160000  0.18870000  0.95910000  1
  Si  Si487  1  0.87840000  0.81130000  0.95910000  1
  Si  Si488  1  0.38400000  0.18280000  0.38890000  1
  Si  Si489  1  0.61600000  0.81720000  0.38890000  1
  Si  Si490  1  0.18280000  0.61600000  0.61110000  1
  Si  Si491  1  0.81720000  0.38400000  0.61110000  1
  Si  Si492  1  0.38400000  0.81720000  0.38890000  1
  Si  Si493  1  0.61600000  0.18280000  0.38890000  1
  Si  Si494  1  0.18280000  0.38400000  0.61110000  1
  Si  Si495  1  0.81720000  0.61600000  0.61110000  1
  Si  Si496  1  0.42300000  0.42340000  0.12430000  1
  Si  Si497  1  0.57700000  0.57660000  0.12430000  1
  Si  Si498  1  0.42340000  0.57700000  0.87570000  1
  Si  Si499  1  0.57660000  0.42300000  0.87570000  1
  Si  Si500  1  0.42300000  0.57660000  0.12430000  1
  Si  Si501  1  0.57700000  0.42340000  0.12430000  1
  Si  Si502  1  0.42340000  0.42300000  0.87570000  1
  Si  Si503  1  0.57660000  0.57700000  0.87570000  1
  Si  Si504  1  0.12400000  0.07530000  0.45260000  1
  Si  Si505  1  0.87600000  0.92470000  0.45260000  1
  Si  Si506  1  0.07530000  0.87600000  0.54740000  1
  Si  Si507  1  0.92470000  0.12400000  0.54740000  1
  Si  Si508  1  0.12400000  0.92470000  0.45260000  1
  Si  Si509  1  0.87600000  0.07530000  0.45260000  1
  Si  Si510  1  0.07530000  0.12400000  0.54740000  1
  Si  Si511  1  0.92470000  0.87600000  0.54740000  1
  Si  Si512  1  0.30990000  0.27660000  0.30470000  1
  Si  Si513  1  0.69010000  0.72340000  0.30470000  1
  Si  Si514  1  0.27660000  0.69010000  0.69530000  1
  Si  Si515  1  0.72340000  0.30990000  0.69530000  1
  Si  Si516  1  0.30990000  0.72340000  0.30470000  1
  Si  Si517  1  0.69010000  0.27660000  0.30470000  1
  Si  Si518  1  0.27660000  0.30990000  0.69530000  1
  Si  Si519  1  0.72340000  0.69010000  0.69530000  1
  Si  Si520  1  0.18700000  0.21610000  0.48680000  1
  Si  Si521  1  0.81300000  0.78390000  0.48680000  1
  Si  Si522  1  0.21610000  0.81300000  0.51320000  1
  Si  Si523  1  0.78390000  0.18700000  0.51320000  1
  Si  Si524  1  0.18700000  0.78390000  0.48680000  1
  Si  Si525  1  0.81300000  0.21610000  0.48680000  1
  Si  Si526  1  0.21610000  0.18700000  0.51320000  1
  Si  Si527  1  0.78390000  0.81300000  0.51320000  1
  Si  Si528  1  0.27680000  0.07660000  0.45240000  1
  Si  Si529  1  0.72320000  0.92340000  0.45240000  1
  Si  Si530  1  0.07660000  0.72320000  0.54760000  1
  Si  Si531  1  0.92340000  0.27680000  0.54760000  1
  Si  Si532  1  0.27680000  0.92340000  0.45240000  1
  Si  Si533  1  0.72320000  0.07660000  0.45240000  1
  Si  Si534  1  0.07660000  0.27680000  0.54760000  1
  Si  Si535  1  0.92340000  0.72320000  0.54760000  1
  Si  Si536  1  0.23420000  0.07670000  0.01590000  1
  Si  Si537  1  0.76580000  0.92330000  0.01590000  1
  Si  Si538  1  0.07670000  0.76580000  0.98410000  1
  Si  Si539  1  0.92330000  0.23420000  0.98410000  1
  Si  Si540  1  0.23420000  0.92330000  0.01590000  1
  Si  Si541  1  0.76580000  0.07670000  0.01590000  1
  Si  Si542  1  0.07670000  0.23420000  0.98410000  1
  Si  Si543  1  0.92330000  0.76580000  0.98410000  1
  Si  Si544  1  0.42390000  0.12290000  0.04470000  1
  Si  Si545  1  0.57610000  0.87710000  0.04470000  1
  Si  Si546  1  0.12290000  0.57610000  0.95530000  1
  Si  Si547  1  0.87710000  0.42390000  0.95530000  1
  Si  Si548  1  0.42390000  0.87710000  0.04470000  1
  Si  Si549  1  0.57610000  0.12290000  0.04470000  1
  Si  Si550  1  0.12290000  0.42390000  0.95530000  1
  Si  Si551  1  0.87710000  0.57610000  0.95530000  1
  Si  Si552  1  0.10840000  0.18940000  0.07760000  1
  Si  Si553  1  0.89160000  0.81060000  0.07760000  1
  Si  Si554  1  0.18940000  0.89160000  0.92240000  1
  Si  Si555  1  0.81060000  0.10840000  0.92240000  1
  Si  Si556  1  0.10840000  0.81060000  0.07760000  1
  Si  Si557  1  0.89160000  0.18940000  0.07760000  1
  Si  Si558  1  0.18940000  0.10840000  0.92240000  1
  Si  Si559  1  0.81060000  0.89160000  0.92240000  1
  Si  Si560  1  0.28270000  0.31440000  0.45230000  1
  Si  Si561  1  0.71730000  0.68560000  0.45230000  1
  Si  Si562  1  0.31440000  0.71730000  0.54770000  1
  Si  Si563  1  0.68560000  0.28270000  0.54770000  1
  Si  Si564  1  0.28270000  0.68560000  0.45230000  1
  Si  Si565  1  0.71730000  0.31440000  0.45230000  1
  Si  Si566  1  0.31440000  0.28270000  0.54770000  1
  Si  Si567  1  0.68560000  0.71730000  0.54770000  1
  Si  Si568  1  0.07730000  0.07850000  0.17990000  1
  Si  Si569  1  0.92270000  0.92150000  0.17990000  1
  Si  Si570  1  0.07850000  0.92270000  0.82010000  1
  Si  Si571  1  0.92150000  0.07730000  0.82010000  1
  Si  Si572  1  0.07730000  0.92150000  0.17990000  1
  Si  Si573  1  0.92270000  0.07850000  0.17990000  1
  Si  Si574  1  0.07850000  0.07730000  0.82010000  1
  Si  Si575  1  0.92150000  0.92270000  0.82010000  1
  Si  Si576  1  0.38600000  0.07590000  0.01890000  1
  Si  Si577  1  0.61400000  0.92410000  0.01890000  1
  Si  Si578  1  0.07590000  0.61400000  0.98110000  1
  Si  Si579  1  0.92410000  0.38600000  0.98110000  1
  Si  Si580  1  0.38600000  0.92410000  0.01890000  1
  Si  Si581  1  0.61400000  0.07590000  0.01890000  1
  Si  Si582  1  0.07590000  0.38600000  0.98110000  1
  Si  Si583  1  0.92410000  0.61400000  0.98110000  1
  Si  Si584  1  0.31930000  0.36970000  0.10490000  1
  Si  Si585  1  0.68070000  0.63030000  0.10490000  1
  Si  Si586  1  0.36970000  0.68070000  0.89510000  1
  Si  Si587  1  0.63030000  0.31930000  0.89510000  1
  Si  Si588  1  0.31930000  0.63030000  0.10490000  1
  Si  Si589  1  0.68070000  0.36970000  0.10490000  1
  Si  Si590  1  0.36970000  0.31930000  0.89510000  1
  Si  Si591  1  0.63030000  0.68070000  0.89510000  1
  Si  Si592  1  0.07580000  0.37740000  0.10340000  1
  Si  Si593  1  0.92420000  0.62260000  0.10340000  1
  Si  Si594  1  0.37740000  0.92420000  0.89660000  1
  Si  Si595  1  0.62260000  0.07580000  0.89660000  1
  Si  Si596  1  0.07580000  0.62260000  0.10340000  1
  Si  Si597  1  0.92420000  0.37740000  0.10340000  1
  Si  Si598  1  0.37740000  0.07580000  0.89660000  1
  Si  Si599  1  0.62260000  0.92420000  0.89660000  1
  Si  Si600  1  0.27980000  0.42270000  0.07990000  1
  Si  Si601  1  0.72020000  0.57730000  0.07990000  1
  Si  Si602  1  0.42270000  0.72020000  0.92010000  1
  Si  Si603  1  0.57730000  0.27980000  0.92010000  1
  Si  Si604  1  0.27980000  0.57730000  0.07990000  1
  Si  Si605  1  0.72020000  0.42270000  0.07990000  1
  Si  Si606  1  0.42270000  0.27980000  0.92010000  1
  Si  Si607  1  0.57730000  0.72020000  0.92010000  1
  Si  Si608  1  0.30160000  0.07710000  0.05960000  1
  Si  Si609  1  0.69840000  0.92290000  0.05960000  1
  Si  Si610  1  0.07710000  0.69840000  0.94040000  1
  Si  Si611  1  0.92290000  0.30160000  0.94040000  1
  Si  Si612  1  0.30160000  0.92290000  0.05960000  1
  Si  Si613  1  0.69840000  0.07710000  0.05960000  1
  Si  Si614  1  0.07710000  0.30160000  0.94040000  1
  Si  Si615  1  0.92290000  0.69840000  0.94040000  1
  Si  Si616  1  0.26650000  0.19040000  0.07820000  1
  Si  Si617  1  0.73350000  0.80960000  0.07820000  1
  Si  Si618  1  0.19040000  0.73350000  0.92180000  1
  Si  Si619  1  0.80960000  0.26650000  0.92180000  1
  Si  Si620  1  0.26650000  0.80960000  0.07820000  1
  Si  Si621  1  0.73350000  0.19040000  0.07820000  1
  Si  Si622  1  0.19040000  0.26650000  0.92180000  1
  Si  Si623  1  0.80960000  0.73350000  0.92180000  1
  Si  Si624  1  0.22530000  0.18450000  0.39020000  1
  Si  Si625  1  0.77470000  0.81550000  0.39020000  1
  Si  Si626  1  0.18450000  0.77470000  0.60980000  1
  Si  Si627  1  0.81550000  0.22530000  0.60980000  1
  Si  Si628  1  0.22530000  0.81550000  0.39020000  1
  Si  Si629  1  0.77470000  0.18450000  0.39020000  1
  Si  Si630  1  0.18450000  0.22530000  0.60980000  1
  Si  Si631  1  0.81550000  0.77470000  0.60980000  1
  Si  Si632  1  0.42440000  0.11540000  0.16600000  1
  Si  Si633  1  0.57560000  0.88460000  0.16600000  1
  Si  Si634  1  0.11540000  0.57560000  0.83400000  1
  Si  Si635  1  0.88460000  0.42440000  0.83400000  1
  Si  Si636  1  0.42440000  0.88460000  0.16600000  1
  Si  Si637  1  0.57560000  0.11540000  0.16600000  1
  Si  Si638  1  0.11540000  0.42440000  0.83400000  1
  Si  Si639  1  0.88460000  0.57560000  0.83400000  1
  Si  Si640  1  0.19870000  0.11970000  0.16480000  1
  Si  Si641  1  0.80130000  0.88030000  0.16480000  1
  Si  Si642  1  0.11970000  0.80130000  0.83520000  1
  Si  Si643  1  0.88030000  0.19870000  0.83520000  1
  Si  Si644  1  0.19870000  0.88030000  0.16480000  1
  Si  Si645  1  0.80130000  0.11970000  0.16480000  1
  Si  Si646  1  0.11970000  0.19870000  0.83520000  1
  Si  Si647  1  0.88030000  0.80130000  0.83520000  1
  Si  Si648  1  0.19370000  0.42320000  0.11900000  1
  Si  Si649  1  0.80630000  0.57680000  0.11900000  1
  Si  Si650  1  0.42320000  0.80630000  0.88100000  1
  Si  Si651  1  0.57680000  0.19370000  0.88100000  1
  Si  Si652  1  0.19370000  0.57680000  0.11900000  1
  Si  Si653  1  0.80630000  0.42320000  0.11900000  1
  Si  Si654  1  0.42320000  0.19370000  0.88100000  1
  Si  Si655  1  0.57680000  0.80630000  0.88100000  1
  Si  Si656  1  0.12620000  0.42430000  0.07870000  1
  Si  Si657  1  0.87380000  0.57570000  0.07870000  1
  Si  Si658  1  0.42430000  0.87380000  0.92130000  1
  Si  Si659  1  0.57570000  0.12620000  0.92130000  1
  Si  Si660  1  0.12620000  0.57570000  0.07870000  1
  Si  Si661  1  0.87380000  0.42430000  0.07870000  1
  Si  Si662  1  0.42430000  0.12620000  0.92130000  1
  Si  Si663  1  0.57570000  0.87380000  0.92130000  1
  Si  Si664  1  0.30630000  0.37300000  0.22740000  1
  Si  Si665  1  0.69370000  0.62700000  0.22740000  1
  Si  Si666  1  0.37300000  0.69370000  0.77260000  1
  Si  Si667  1  0.62700000  0.30630000  0.77260000  1
  Si  Si668  1  0.30630000  0.62700000  0.22740000  1
  Si  Si669  1  0.69370000  0.37300000  0.22740000  1
  Si  Si670  1  0.37300000  0.30630000  0.77260000  1
  Si  Si671  1  0.62700000  0.69370000  0.77260000  1
  Si  Si672  1  0.37320000  0.30350000  0.13840000  1
  Si  Si673  1  0.62680000  0.69650000  0.13840000  1
  Si  Si674  1  0.30350000  0.62680000  0.86160000  1
  Si  Si675  1  0.69650000  0.37320000  0.86160000  1
  Si  Si676  1  0.37320000  0.69650000  0.13840000  1
  Si  Si677  1  0.62680000  0.30350000  0.13840000  1
  Si  Si678  1  0.30350000  0.37320000  0.86160000  1
  Si  Si679  1  0.69650000  0.62680000  0.86160000  1
  Si  Si680  1  0.22930000  0.07380000  0.13830000  1
  Si  Si681  1  0.77070000  0.92620000  0.13830000  1
  Si  Si682  1  0.07380000  0.77070000  0.86170000  1
  Si  Si683  1  0.92620000  0.22930000  0.86170000  1
  Si  Si684  1  0.22930000  0.92620000  0.13830000  1
  Si  Si685  1  0.77070000  0.07380000  0.13830000  1
  Si  Si686  1  0.07380000  0.22930000  0.86170000  1
  Si  Si687  1  0.92620000  0.77070000  0.86170000  1
  Si  Si688  1  0.38370000  0.07710000  0.13900000  1
  Si  Si689  1  0.61630000  0.92290000  0.13900000  1
  Si  Si690  1  0.07710000  0.61630000  0.86100000  1
  Si  Si691  1  0.92290000  0.38370000  0.86100000  1
  Si  Si692  1  0.38370000  0.92290000  0.13900000  1
  Si  Si693  1  0.61630000  0.07710000  0.13900000  1
  Si  Si694  1  0.07710000  0.38370000  0.86100000  1
  Si  Si695  1  0.92290000  0.61630000  0.86100000  1
  Si  Si696  1  0.12570000  0.18150000  0.19940000  1
  Si  Si697  1  0.87430000  0.81850000  0.19940000  1
  Si  Si698  1  0.18150000  0.87430000  0.80060000  1
  Si  Si699  1  0.81850000  0.12570000  0.80060000  1
  Si  Si700  1  0.12570000  0.81850000  0.19940000  1
  Si  Si701  1  0.87430000  0.18150000  0.19940000  1
  Si  Si702  1  0.18150000  0.12570000  0.80060000  1
  Si  Si703  1  0.81850000  0.87430000  0.80060000  1
  Si  Si704  1  0.21470000  0.31760000  0.13830000  1
  Si  Si705  1  0.78530000  0.68240000  0.13830000  1
  Si  Si706  1  0.31760000  0.78530000  0.86170000  1
  Si  Si707  1  0.68240000  0.21470000  0.86170000  1
  Si  Si708  1  0.21470000  0.68240000  0.13830000  1
  Si  Si709  1  0.78530000  0.31760000  0.13830000  1
  Si  Si710  1  0.31760000  0.21470000  0.86170000  1
  Si  Si711  1  0.68240000  0.78530000  0.86170000  1
  Si  Si712  1  0.11650000  0.42430000  0.19770000  1
  Si  Si713  1  0.88350000  0.57570000  0.19770000  1
  Si  Si714  1  0.42430000  0.88350000  0.80230000  1
  Si  Si715  1  0.57570000  0.11650000  0.80230000  1
  Si  Si716  1  0.11650000  0.57570000  0.19770000  1
  Si  Si717  1  0.88350000  0.42430000  0.19770000  1
  Si  Si718  1  0.42430000  0.11650000  0.80230000  1
  Si  Si719  1  0.57570000  0.88350000  0.80230000  1
  Si  Si720  1  0.27360000  0.42200000  0.20080000  1
  Si  Si721  1  0.72640000  0.57800000  0.20080000  1
  Si  Si722  1  0.42200000  0.72640000  0.79920000  1
  Si  Si723  1  0.57800000  0.27360000  0.79920000  1
  Si  Si724  1  0.27360000  0.57800000  0.20080000  1
  Si  Si725  1  0.72640000  0.42200000  0.20080000  1
  Si  Si726  1  0.42200000  0.27360000  0.79920000  1
  Si  Si727  1  0.57800000  0.72640000  0.79920000  1
  Si  Si728  1  0.28480000  0.19200000  0.20020000  1
  Si  Si729  1  0.71520000  0.80800000  0.20020000  1
  Si  Si730  1  0.19200000  0.71520000  0.79980000  1
  Si  Si731  1  0.80800000  0.28480000  0.79980000  1
  Si  Si732  1  0.28480000  0.80800000  0.20020000  1
  Si  Si733  1  0.71520000  0.19200000  0.20020000  1
  Si  Si734  1  0.19200000  0.28480000  0.79980000  1
  Si  Si735  1  0.80800000  0.71520000  0.79980000  1
  Si  Si736  1  0.12540000  0.07590000  0.33080000  1
  Si  Si737  1  0.87460000  0.92410000  0.33080000  1
  Si  Si738  1  0.07590000  0.87460000  0.66920000  1
  Si  Si739  1  0.92410000  0.12540000  0.66920000  1
  Si  Si740  1  0.12540000  0.92410000  0.33080000  1
  Si  Si741  1  0.87460000  0.07590000  0.33080000  1
  Si  Si742  1  0.07590000  0.12540000  0.66920000  1
  Si  Si743  1  0.92410000  0.87460000  0.66920000  1
  Si  Si744  1  0.36940000  0.07600000  0.26100000  1
  Si  Si745  1  0.63060000  0.92400000  0.26100000  1
  Si  Si746  1  0.07600000  0.63060000  0.73900000  1
  Si  Si747  1  0.92400000  0.36940000  0.73900000  1
  Si  Si748  1  0.36940000  0.92400000  0.26100000  1
  Si  Si749  1  0.63060000  0.07600000  0.26100000  1
  Si  Si750  1  0.07600000  0.36940000  0.73900000  1
  Si  Si751  1  0.92400000  0.63060000  0.73900000  1
  Si  Si752  1  0.31130000  0.07500000  0.18360000  1
  Si  Si753  1  0.68870000  0.92500000  0.18360000  1
  Si  Si754  1  0.07500000  0.68870000  0.81640000  1
  Si  Si755  1  0.92500000  0.31130000  0.81640000  1
  Si  Si756  1  0.31130000  0.92500000  0.18360000  1
  Si  Si757  1  0.68870000  0.07500000  0.18360000  1
  Si  Si758  1  0.07500000  0.31130000  0.81640000  1
  Si  Si759  1  0.92500000  0.68870000  0.81640000  1
  Si  Si760  1  0.37750000  0.32030000  0.26110000  1
  Si  Si761  1  0.62250000  0.67970000  0.26110000  1
  Si  Si762  1  0.32030000  0.62250000  0.73890000  1
  Si  Si763  1  0.67970000  0.37750000  0.73890000  1
  Si  Si764  1  0.37750000  0.67970000  0.26110000  1
  Si  Si765  1  0.62250000  0.32030000  0.26110000  1
  Si  Si766  1  0.32030000  0.37750000  0.73890000  1
  Si  Si767  1  0.67970000  0.62250000  0.73890000  1
  Si  Si768  1  0.42250000  0.07650000  0.40840000  1
  Si  Si769  1  0.57750000  0.92350000  0.40840000  1
  Si  Si770  1  0.07650000  0.57750000  0.59160000  1
  Si  Si771  1  0.92350000  0.42250000  0.59160000  1
  Si  Si772  1  0.42250000  0.92350000  0.40840000  1
  Si  Si773  1  0.57750000  0.07650000  0.40840000  1
  Si  Si774  1  0.07650000  0.42250000  0.59160000  1
  Si  Si775  1  0.92350000  0.57750000  0.59160000  1
  Si  Si776  1  0.07530000  0.12280000  0.42760000  1
  Si  Si777  1  0.92470000  0.87720000  0.42760000  1
  Si  Si778  1  0.12280000  0.92470000  0.57240000  1
  Si  Si779  1  0.87720000  0.07530000  0.57240000  1
  Si  Si780  1  0.07530000  0.87720000  0.42760000  1
  Si  Si781  1  0.92470000  0.12280000  0.42760000  1
  Si  Si782  1  0.12280000  0.07530000  0.57240000  1
  Si  Si783  1  0.87720000  0.92470000  0.57240000  1
