# generated using pymatgen
data_SiF6
_symmetry_space_group_name_H-M   'P 1'
_cell_length_a   6.99730000
_cell_length_b   6.99730000
_cell_length_c   7.49180000
_cell_angle_alpha   90.00000000
_cell_angle_beta   90.00000000
_cell_angle_gamma   90.00000000
_symmetry_Int_Tables_number   1
_chemical_formula_structural   SiF6
_chemical_formula_sum   'Si1 F6'
_cell_volume   366.81506458
_cell_formula_units_Z   1
loop_
 _symmetry_equiv_pos_site_id
 _symmetry_equiv_pos_as_xyz
  1  'x, y, z'
loop_
 _atom_site_type_symbol
 _atom_site_label
 _atom_site_symmetry_multiplicity
 _atom_site_fract_x
 _atom_site_fract_y
 _atom_site_fract_z
 _atom_site_occupancy
  Si  Si0  1  0.50000000  0.50000000  0.00000000  1
  F  F1  1  0.50000000  0.50000000  -0.23440000  1
  F  F2  1  0.50000000  0.50000000  0.23440000  1
  F  F3  1  0.66520000  0.66520000  0.00000000  1
  F  F4  1  0.33480000  0.33480000  0.00000000  1
  F  F5  1  0.33480000  0.66520000  0.00000000  1
  F  F6  1  0.66520000  0.33480000  0.00000000  1
