# generated using pymatgen
data_InO6
_symmetry_space_group_name_H-M   'P 1'
_cell_length_a   5.65300000
_cell_length_b   6.62700000
_cell_length_c   9.39100000
_cell_angle_alpha   70.78800000
_cell_angle_beta   75.83600000
_cell_angle_gamma   89.68000000
_symmetry_Int_Tables_number   1
_chemical_formula_structural   InO6
_chemical_formula_sum   'In1 O6'
_cell_volume   321.03624433
_cell_formula_units_Z   1
loop_
 _symmetry_equiv_pos_site_id
 _symmetry_equiv_pos_as_xyz
  1  'x, y, z'
loop_
 _atom_site_type_symbol
 _atom_site_label
 _atom_site_symmetry_multiplicity
 _atom_site_fract_x
 _atom_site_fract_y
 _atom_site_fract_z
 _atom_site_occupancy
  In  In0  1  0.71360000  0.66830000  0.16060000  1
  O  O1  1  0.68400000  0.97490000  0.18990000  1
  O  O2  1  0.72300000  0.34600000  0.17540000  1
  O  O3  1  0.55220000  0.75980000  -0.03050000  1
  O  O4  1  1.09300000  0.74500000  0.06870000  1
  O  O5  1  0.81090000  0.55810000  0.39550000  1
  O  O6  1  0.36010000  0.57400000  0.34500000  1
