data_EMM37ASMADE_publ

_pd_block_id
  2018-01-19T10:58|EMM37ASMADE|allen_burton|Overall

_audit_creation_method  "from EXP file using GSAS2CIF"
_audit_creation_date                   2018-01-19T10:58
_audit_author_name                     "allen burton"
_audit_update_record
; 2018-01-19T10:58  Initial CIF as created by GSAS2CIF
;

#=============================================================================
# this information describes the project, paper etc. for the CIF             #
# Acta Cryst. Section C papers and editorial correspondence is generated     #
# from the information in this section                                       #
#                                                                            #
#   (from)   CIF submission form for Rietveld refinements (Acta Cryst. C)    #
#                                                 Version 14 December 1998   #
#=============================================================================
# 1. SUBMISSION DETAILS

_publ_contact_author_name            ?   # Name of author for correspondence
_publ_contact_author_address             # Address of author for correspondence
; ?
;
_publ_contact_author_email           ?
_publ_contact_author_fax             ?
_publ_contact_author_phone           ?

_publ_contact_letter
; ?
;

_publ_requested_journal              ?
_publ_requested_coeditor_name        ?
_publ_requested_category             ?   # Acta C: one of CI/CM/CO/FI/FM/FO

#==============================================================================

# 2. PROCESSING SUMMARY (IUCr Office Use Only)

_journal_data_validation_number      ?

_journal_date_recd_electronic        ?
_journal_date_to_coeditor            ?
_journal_date_from_coeditor          ?
_journal_date_accepted               ?
_journal_date_printers_first         ?
_journal_date_printers_final         ?
_journal_date_proofs_out             ?
_journal_date_proofs_in              ?
_journal_coeditor_name               ?
_journal_coeditor_code               ?
_journal_coeditor_notes
; ?
;
_journal_techeditor_code             ?
_journal_techeditor_notes
; ?
;
_journal_coden_ASTM                  ?
_journal_name_full                   ?
_journal_year                        ?
_journal_volume                      ?
_journal_issue                       ?
_journal_page_first                  ?
_journal_page_last                   ?
_journal_paper_category              ?
_journal_suppl_publ_number           ?
_journal_suppl_publ_pages            ?

#==============================================================================

# 3. TITLE AND AUTHOR LIST

_publ_section_title
; ?
;
_publ_section_title_footnote
; ?
;

# The loop structure below should contain the names and addresses of all
# authors, in the required order of publication. Repeat as necessary.

loop_
	_publ_author_name
        _publ_author_footnote
	_publ_author_address
 ?                                   #<--'Last name, first name'
; ?
;
; ?
;

#==============================================================================

# 4. TEXT

_publ_section_synopsis
;  ?
;
_publ_section_abstract
; ?
;
_publ_section_comment
; ?
;
_publ_section_exptl_prep      # Details of the preparation of the sample(s)
                              # should be given here.
; ?
;
_publ_section_exptl_refinement
; ?
;
_publ_section_references
; ?
;
_publ_section_figure_captions
; ?
;
_publ_section_acknowledgements
; ?
;

#=============================================================================
# 5. OVERALL REFINEMENT & COMPUTING DETAILS

_refine_special_details
; ?
;
_pd_proc_ls_special_details
; ?
;

# The following items are used to identify the programs used.
_computing_molecular_graphics     ?
_computing_publication_material   ?

_refine_ls_weighting_scheme       ?
_refine_ls_weighting_details      ?
_refine_ls_hydrogen_treatment     ?
_refine_ls_extinction_method      ?
_refine_ls_extinction_coef        ?
_refine_ls_number_constraints     ?

_refine_ls_restrained_S_all       ?
_refine_ls_restrained_S_obs       ?

#==============================================================================
# 6. SAMPLE PREPARATION DATA

# (In the unusual case where multiple samples are used in a single
#  Rietveld study, this information should be moved into the phase
#  blocks)

# The following three fields describe the preparation of the material.
# The cooling rate is in K/min.  The pressure at which the sample was
# prepared is in kPa.  The temperature of preparation is in K.

_pd_prep_cool_rate                ?
_pd_prep_pressure                 ?
_pd_prep_temperature              ?

_pd_char_colour                   ?       # use ICDD colour descriptions
data_EMM37ASMADE_overall

_refine_ls_shift/su_max                1.71
_refine_ls_shift/su_mean               0.33
_computing_structure_refinement        GSAS
_refine_ls_number_parameters           112
_refine_ls_goodness_of_fit_all         1.02
_refine_ls_number_restraints           90
_refine_ls_matrix_type                 full

# pointers to the phase blocks
loop_   _pd_phase_block_id
      2018-01-19T10:58|EMM37ASMADE_phase1|allen_burton||
# pointers to the diffraction patterns
loop_   _pd_block_diffractogram_id
      ?

# Information for phase 1
data_EMM37ASMADE_phase_1

_pd_block_id
  2018-01-19T10:58|EMM37ASMADE_phase1|allen_burton||

#==============================================================================
# 7. CHEMICAL, STRUCTURAL AND CRYSTAL DATA

_pd_char_particle_morphology      ?

_chemical_name_systematic
; ?
;
_chemical_name_common             ?
_chemical_formula_moiety          ?
_chemical_formula_structural      ?
_chemical_formula_analytical      ?
_chemical_melting_point           ?
_chemical_compound_source         ?       # for minerals and
                                          # natural products
_symmetry_space_group_name_Hall   ?

_exptl_crystal_F_000               ?
_exptl_crystal_density_diffrn      ?
_exptl_crystal_density_meas        ?
_exptl_crystal_density_method      ?

_cell_measurement_temperature     293
_diffrn_ambient_temperature       293
_exptl_crystal_description    'plate-like nanocrystal'
_diffrn_measurement_device_type 'beamline 11-BM at Argonne National Laboratory'


_cell_special_details
; ?
;

_geom_special_details             ?

# The following item identifies the program(s) used (if appropriate).
_computing_structure_solution     ?

#==============================================================================

# 8. Phase information from GSAS

_pd_phase_name                         "EMM-37 as-made"
_cell_length_a                         8.83167(7)
_cell_length_b                         9.63443(9)
_cell_length_c                         10.65257(12)
_cell_angle_alpha                      104.4134(7)
_cell_angle_beta                       99.8012(7)
_cell_angle_gamma                      99.4979(6)
_cell_volume                           844.395(11)
_symmetry_cell_setting                 triclinic
_symmetry_space_group_name_H-M         "P -1"
loop_ _symmetry_equiv_pos_site_id _symmetry_equiv_pos_as_xyz
       1 +x,+y,+z 
      -1 -x,-y,-z 

# ATOMIC COORDINATES AND DISPLACEMENT PARAMETERS


loop_
      _atom_site_type_symbol
      _atom_site_label
      _atom_site_fract_x
      _atom_site_fract_y
      _atom_site_fract_z
      _atom_site_occupancy
      _atom_site_thermal_displace_type
      _atom_site_U_iso_or_equiv
      _atom_site_symmetry_multiplicity
Si
Si1     0.52281(31)  0.26859(32)  0.14085(26)  1.0        Uiso   0.01181       2
Si
Si2     0.55639(32)  0.42158(32) -0.19338(26)  1.0        Uiso   0.01181       2
Si
Si3     0.57067(31)  0.05309(31)  0.32170(29)  1.0        Uiso   0.01181       2
Si
Si4     0.31539(32) -0.18884(33)  0.36831(30)  1.0        Uiso   0.01181       2
Si
Si5     0.30839(32)  0.18448(35) -0.14334(31)  1.0        Uiso   0.01181       2
Si
Si6     0.00189(30) -0.2948(4)    0.15650(28)  1.0        Uiso   0.01181       2
Si
Si7     0.80372(29)  0.39847(32)  0.03992(27)  1.0        Uiso   0.01181       2
O 
O1      0.5129(6)    0.1663(6)    0.2347(6)    1.0        Uiso   0.01461       2
O 
O2      0.6911(6)    0.4507(6)   -0.0655(5)    1.0        Uiso   0.01461       2
O 
O3      0.4067(6)   -0.0566(6)    0.3261(5)    1.0        Uiso   0.01461       2
O 
O4      0.3947(6)    0.3211(6)   -0.1864(5)    1.0        Uiso   0.01461       2
O 
O5      0.3947(6)    0.1858(6)    0.0033(5)    1.0        Uiso   0.01461       2
O 
O6      0.1331(5)   -0.2241(6)    0.2964(5)    1.0        Uiso   0.01461       2
O 
O7      0.4703(6)    0.4182(6)    0.2112(5)    1.0        Uiso   0.01461       2
O 
O8      0.6947(5)    0.3015(5)    0.1158(5)    1.0        Uiso   0.01461       2
O 
O9      0.1221(6)    0.1950(6)   -0.1541(5)    1.0        Uiso   0.01461       2
O 
O10     0.6651(6)    0.1379(6)    0.4729(6)    1.0        Uiso   0.01461       2
O 
O11     0.6885(6)   -0.0339(6)    0.2450(5)    1.0        Uiso   0.01461       2
O 
O12     0.3936(6)   -0.3344(6)    0.3266(5)    1.0        Uiso   0.01461       2
O 
O13     0.9208(6)    0.5417(6)    0.1545(5)    1.0        Uiso   0.01461       2
O 
O14     0.9088(6)    0.2961(6)   -0.0335(5)    1.0        Uiso   0.01461       2
O 
C1      0.0331(12)   0.4343(10)   0.4812(11)   1.0        Uiso   0.14716       2
O 
C2      0.2280(10)   0.4695(9)    0.5444(9)    1.0        Uiso   0.14716       2
O 
C3      0.2804(9)    0.3482(10)   0.4352(9)    1.0        Uiso   0.14716       2
O 
C4      0.1201(12)   0.2234(10)   0.3577(9)    1.0        Uiso   0.14716       2
O 
C5     -0.0254(10)   0.3125(9)    0.3426(8)    1.0        Uiso   0.14716       2
O 
C6      0.0804(9)    0.1127(9)    0.4375(8)    1.0        Uiso   0.14716       2
O 
C7      0.1262(9)    0.1533(8)    0.2078(8)    1.0        Uiso   0.14716       2

loop_ _atom_type_symbol
      _atom_type_number_in_cell
                   Si 14.0        
                   O  42.0        
 
# If you change Z, be sure to change all 3 of the following
_chemical_formula_sum                  "O21 Si7"
_chemical_formula_weight               532.58
_cell_formula_units_Z                  2

# MOLECULAR GEOMETRY

loop_
_geom_bond_atom_site_label_1
_geom_bond_atom_site_label_2
_geom_bond_distance
_geom_bond_site_symmetry_2
_ccdc_geom_bond_type
Si1    O1      1.572(8)   .     S
Si1    O5      1.618(5)   .     S
Si1    O7      1.630(6)   .     S
Si1    O8      1.580(5)   .     S
Si2    O2      1.580(6)   .     S
Si2    O4      1.612(6)   .     S
Si2    O7      1.651(7)   2_665 S
Si2    O12     1.630(6)   2_655 S
Si3    O1      1.684(7)   .     S
Si3    O3      1.661(6)   .     S
Si3    O10     1.619(6)   .     S
Si3    O11     1.640(6)   .     S
Si4    O3      1.595(7)   .     S
Si4    O6      1.601(5)   .     S
Si4    O12     1.660(7)   .     S
Si4    O10     1.610(7)   2_656 S
Si5    O4      1.616(7)   .     S
Si5    O5      1.613(6)   .     S
Si5    O9      1.651(6)   .     S
Si5    O11     1.587(6)   2_655 S
Si6    O6      1.635(5)   .     S
Si6    O13     1.613(7)   1_445 S
Si6    O14     1.639(7)   2_655 S
Si6    O9      1.573(7)   2     S
Si7    O2      1.603(6)   .     S
Si7    O8      1.673(6)   .     S
Si7    O13     1.650(5)   .     S
Si7    O14     1.616(6)   .     S
O7     Si2     1.651(7)   2_665 S
O9     Si6     1.573(7)   2     S
O10    Si4     1.610(7)   2_656 S
O11    Si5     1.587(6)   2_655 S
O12    Si2     1.630(6)   2_655 S
O13    Si6     1.613(7)   1_665 S
O14    Si6     1.639(7)   2_655 S
C1     C2      1.682(1)   .     S
C1     C5      1.582(1)   .     D
C1     C1      1.475(1)   2_566 S
C2     C3      1.618(1)   .     T
C3     C4      1.636(1)   .     S
C4     C5      1.666(1)   .     S
C4     C6      1.553(1)   .     S
C4     C7      1.585(1)   .     S

loop_
      _geom_angle_atom_site_label_1
      _geom_angle_atom_site_label_2
      _geom_angle_atom_site_label_3
      _geom_angle
      _geom_angle_site_symmetry_1
      _geom_angle_site_symmetry_2
      _geom_angle_site_symmetry_3
      _geom_angle_publ_flag
  O1        Si1       O5              107.5(3)      1_555  .      1_555  N
  O1        Si1       O7              107.5(3)      1_555  .      1_555  N
  O1        Si1       O8              110.4(3)      1_555  .      1_555  N
  O5        Si1       O7              107.9(3)      1_555  .      1_555  N
  O5        Si1       O8              111.3(3)      1_555  .      1_555  N
  O7        Si1       O8              111.9(3)      1_555  .      1_555  N
  O2        Si2       O4              112.5(3)      1_555  .      1_555  N
  O2        Si2       O7              108.2(3)      1_555  .     -1_665  N
  O2        Si2       O12             111.2(3)      1_555  .     -1_655  N
  O4        Si2       O7              111.2(3)      1_555  .     -1_665  N
  O4        Si2       O12             106.1(3)      1_555  .     -1_655  N
  O7        Si2       O12             107.6(3)     -1_665  .     -1_655  N
  O1        Si3       O3              105.9(3)      1_555  .      1_555  N
  O1        Si3       O10             113.5(3)      1_555  .      1_555  N
  O1        Si3       O11             107.4(3)      1_555  .      1_555  N
  O3        Si3       O10             108.4(3)      1_555  .      1_555  N
  O3        Si3       O11             113.7(3)      1_555  .      1_555  N
  O10       Si3       O11             108.1(3)      1_555  .      1_555  N
  O3        Si4       O6              108.6(3)      1_555  .      1_555  N
  O3        Si4       O10             108.1(3)      1_555  .     -1_656  N
  O3        Si4       O12             109.7(3)      1_555  .      1_555  N
  O6        Si4       O10             109.9(3)      1_555  .     -1_656  N
  O6        Si4       O12             111.3(3)      1_555  .      1_555  N
  O10       Si4       O12             109.2(3)     -1_656  .      1_555  N
  O4        Si5       O5              111.1(3)      1_555  .      1_555  N
  O4        Si5       O9              107.2(3)      1_555  .      1_555  N
  O4        Si5       O11             110.1(3)      1_555  .     -1_655  N
  O5        Si5       O9              112.7(3)      1_555  .      1_555  N
  O5        Si5       O11             108.3(3)      1_555  .     -1_655  N
  O9        Si5       O11             107.3(3)      1_555  .     -1_655  N
  O6        Si6       O9              107.7(3)      1_555  .     -1_555  N
  O6        Si6       O13             107.2(3)      1_555  .      1_445  N
  O6        Si6       O14             108.5(3)      1_555  .     -1_655  N
  O9        Si6       O13             111.1(3)     -1_555  .      1_445  N
  O9        Si6       O14             110.4(3)     -1_555  .     -1_655  N
  O13       Si6       O14             111.9(3)      1_445  .     -1_655  N
  O2        Si7       O8              109.7(3)      1_555  .      1_555  N
  O2        Si7       O13             110.5(3)      1_555  .      1_555  N
  O2        Si7       O14             110.6(3)      1_555  .      1_555  N
  O8        Si7       O13             108.1(3)      1_555  .      1_555  N
  O8        Si7       O14             108.5(3)      1_555  .      1_555  N
  O13       Si7       O14             109.4(3)      1_555  .      1_555  N
  Si1       O1        Si3             157.8(4)      1_555  .      1_555  N
  Si2       O2        Si7             153.1(4)      1_555  .      1_555  N
  Si3       O3        Si4             152.0(4)      1_555  .      1_555  N
  Si2       O4        Si5             148.5(4)      1_555  .      1_555  N
  Si1       O5        Si5             149.6(4)      1_555  .      1_555  N
  Si4       O6        Si6             146.3(4)      1_555  .      1_555  N
  Si1       O7        Si2             143.5(4)      1_555  .     -1_665  N
  Si1       O8        Si7             141.5(4)      1_555  .      1_555  N
  Si5       O9        Si6             147.1(4)      1_555  .     -1_555  N
  Si3       O10       Si4             154.4(4)      1_555  .     -1_656  N
  Si3       O11       Si5             142.2(4)      1_555  .     -1_655  N
  Si2       O12       Si4             135.3(4)     -1_655  .      1_555  N
  Si6       O13       Si7             134.6(4)      1_665  .      1_555  N
  Si6       O14       Si7             135.5(4)     -1_655  .      1_555  N
  C1        C1        C2              112.0(8)     -1_566  .      1_555  N
  C1        C1        C5              124.1(9)     -1_566  .      1_555  N
  C2        C1        C5              114.6(8)      1_555  .      1_555  N
  C1        C2        C3              100.7(7)      1_555  .      1_555  N
  C2        C3        C4              105.9(7)      1_555  .      1_555  N
  C3        C4        C5              106.5(7)      1_555  .      1_555  N
  C3        C4        C6              111.9(7)      1_555  .      1_555  N
  C3        C4        C7              110.6(7)      1_555  .      1_555  N
  C5        C4        C6              108.6(7)      1_555  .      1_555  N
  C5        C4        C7              102.6(7)      1_555  .      1_555  N
  C6        C4        C7              115.7(7)      1_555  .      1_555  N
  C1        C5        C4               97.6(7)      1_555  .      1_555  N

loop_
      _refln_index_h
      _refln_index_k
      _refln_index_l
      _refln_observed_status
      _refln_F_squared_meas
      _refln_F_squared_calc
      _refln_phase_calc
      _refln_d_spacing
      _gsas_i100_meas
   0   0   1 o  1231.763   1169.885    0.00   10.06106  26.55 
   0   1   0 o  1255.173   1242.326   180.00   9.10864  22.18 
   1   0   0 o  2872.479   2878.544   180.00   8.49490  44.15 
   0   1  -1 o  7377.815   7188.737   180.00   7.97751  100.00
   1   0  -1 o  395.296    374.791    180.00   7.34005   4.54 
   1  -1   0 o  2717.343   2628.279   180.00   7.01969  28.52 
   0   1   1 o  568.987    624.128    180.00   5.96013   4.31 
   1   0   1 o  94.533     111.073    180.00   5.88114   0.70 
   1  -1   1 o  461.761    517.628     0.00    5.85913   3.38 
   1   1  -1 o  192.923    180.114    180.00   5.77237   1.37 
   1  -1  -1 o  730.902    779.946     0.00    5.65992   4.99 
   1   1   0 o  296.651    348.125    180.00   5.63195   2.00 
   0   1  -2 o  6294.233   6255.752   180.00   5.05519  34.28 
   0   0   2 o  2463.199   2375.152   180.00   5.03053  13.28 
   0   2  -1 o  799.901    658.705    180.00   4.68019   3.73 
   1   0  -2 o  730.679    537.270    180.00   4.82116   3.62 
   0   2   0 o  5265.012   5146.046   180.00   4.55432  23.28 
   1   1  -2 o  7909.529   7701.895   180.00   4.55230  34.94 
   1  -2   0 o  65.804     70.170      0.00    4.43520   0.28 
   1  -2   1 o  10367.133  10483.707   0.00    4.32527  41.34 
   1   1   1 o  1493.647   1471.809    0.00    4.35194   6.03 
   1  -1   2 o  8269.029   8308.829   180.00   4.16222  30.54 
   2   0  -1 o  824.169    863.481     0.00    4.26564   3.20 
   2   0   0 o  2407.693   2497.972    0.00    4.24745   9.26 
   0   2  -2 o  278.839    281.755     0.00    3.98876   0.95 
   2  -1   0 o  590.321    600.775     0.00    4.21638   2.24 
   1  -1  -2 o  830.232    850.522     0.00    4.01945   2.86 
   2  -1  -1 o  965.479    990.951    180.00   4.01621   3.32 
   1   2  -1 o  10372.746  10660.501  180.00   3.90528  33.73 
   1   0   2 o  21720.385  21774.854   0.00    3.96139  72.68 
   0   1   2 o  185.944    183.431    180.00   3.95265   0.62 
   1  -2  -1 o  7871.756   7873.324    0.00    3.83547  24.69 
   1   2   0 o  3478.334   3476.347   180.00   3.69353  10.12 
   2  -1   1 o  6955.162   7038.688   180.00   3.77262  21.11 
   0   2   1 o  3351.158   3409.764   180.00   3.76546  10.13 
   2   0  -2 o  5829.068   5736.151   180.00   3.67002  16.75 
   2   1  -1 o  16904.674  17114.209   0.00    3.72613  50.06 
   1  -2   2 o  35.106     38.450     180.00   3.63149   0.10 
   1   2  -2 o  14266.493  14927.437   0.00    3.58996  39.22 
   2   0   1 o  32.050     35.299     180.00   3.63553   0.09 
   2  -2   0 o  577.033    530.531     0.00    3.50984   1.52 
   0   1  -3 o  4805.971   4910.370    0.00    3.48562  12.46 
   2   1   0 o  1686.773   1813.410   180.00   3.56425   4.57 
   2   1  -2 o  2882.726   2904.440    0.00    3.42810   7.23 
   1   1  -3 o  1401.938   1389.141    0.00    3.40492   3.47 
   1   0  -3 o  124.053    124.480    180.00   3.38561   0.30 
   2  -1  -2 o  2936.189   2985.918    0.00    3.38059   7.16 
   0   0   3 o  1671.372   1537.647   180.00   3.35369   4.01 
   2  -2   1 o  653.933    601.533     0.00    3.35261   1.57 
   2  -2  -1 o  23293.201  22681.262  180.00   3.27664  53.36 
   0   3  -1 o  485.085    402.187     0.00    3.16704   1.04 
   0   2  -3 o  640.106    536.238    180.00   3.16528   1.37 
   1  -3   1 o  1922.054   1693.573    0.00    3.13293   4.03 
   1   1   2 o  4908.578   4726.170    0.00    3.26457  11.16 
   2  -1   2 o  250.569    237.998    180.00   3.10042   0.51 
   1   2  -3 o  84.265     84.779     180.00   3.02372   0.16 
   1  -2  -2 o  8774.570   8644.392    0.00    3.08789  17.86 
   1   2   1 o  2671.271   2534.723   180.00   3.14979   5.66 
   1  -3   0 o  516.686    513.686    180.00   3.07897   1.05 
   0   3  -2 o  2367.269   2315.438   180.00   3.00584   4.57 
   1  -1   3 o  13064.534  12994.866  180.00   3.07039  26.29 
   0   3   0 o  308.005    316.210    180.00   3.03621   0.61 
   2   1   1 o  887.291    890.225    180.00   3.08365   1.80 
   1  -1  -3 o  5864.757   5880.359   180.00   2.98362  11.15 
   0   2   2 o  26.639     26.944      0.00    2.98006   0.05 
   1  -2   3 o  814.911    808.493    180.00   2.91159   1.47 
   1  -3   2 o  3263.552   3238.197    0.00    2.91063   5.90 
   2   2  -1 o  364.030    376.623     0.00    2.97221   0.69 
   2   0  -3 o  2881.053   2978.600   180.00   2.97103   5.43 
   2  -2   2 o  4870.485   4970.663    0.00    2.92957   8.92 
   2   1  -3 o  3749.791   3713.331    0.00    2.91212   6.79 
   1   0   3 o   0.485      0.476      0.00    2.90749   0.00 
   0   1   3 o  1588.062   1597.184    0.00    2.89133   2.83 
   2   2  -2 o  1900.819   1909.129   180.00   2.88618   3.38 
   2   0   2 o  5161.079   5222.117   180.00   2.94057   9.53 
   3   0  -1 o  32.616     33.059     180.00   2.89800   0.06 
   3  -1   0 o  204.614    205.052     0.00    2.88771   0.36 
   2  -2  -2 o  4388.563   4521.150   180.00   2.82996   7.51 
   3  -1  -1 o  4463.079   4462.174    0.00    2.88085   7.91 
   1   3  -1 o  4115.962   4285.813    0.00    2.82582   7.02 
   1   3  -2 o  10801.439  10993.214   0.00    2.76251  17.61 
   2   2   0 o  1859.871   2071.076   180.00   2.81598   3.15 
   2  -3   1 o  908.093    946.450    180.00   2.75470   1.47 
   1  -3  -1 o  2250.624   2301.442   180.00   2.78591   3.73 
   3   0   0 o  1002.195   1025.181    0.00    2.83163   1.72 
   2  -3   0 o  6223.139   6385.298    0.00    2.77129  10.21 
   2  -1  -3 o  1684.830   1801.077    0.00    2.74448   2.71 
   3   0  -2 o  516.772    569.961     0.00    2.74018   0.83 
   0   3  -3 o  1704.296   1726.609    0.00    2.65917   2.57 
   0   3   1 o  53.470     56.352      0.00    2.70160   0.08 
   1   1  -4 o  212.754    236.459     0.00    2.63510   0.32 
   1   3   0 o  75.463     81.343      0.00    2.68044   0.12 
   3  -2   0 o  161.415    173.903    180.00   2.68000   0.25 
   0   1  -4 o   2.025      2.295      0.00    2.62394   0.00 
   3  -1  -2 o  4262.383   4301.943    0.00    2.66481   6.47 
   2   2  -3 o  28.072     31.594     180.00   2.61128   0.04 
   3  -1   1 o  802.991    869.651    180.00   2.68118   1.23 
   3  -2  -1 o  30.457     35.008      0.00    2.61694   0.04 
   3   1  -1 o  5655.112   5601.819   180.00   2.65603   8.52 
   2  -3   2 o  2843.234   2928.908   180.00   2.55561   3.97 
   1  -3   3 o   0.005      0.005     180.00   2.54863   0.00 
   1   2   2 o  2126.411   2248.511   180.00   2.59899   3.07 
   2  -3  -1 o   0.000      0.000      0.00    2.59595   0.00 
   3   1  -2 o  1966.677   1992.340   180.00   2.58504   2.81 
   0   2  -4 o  1317.674   1336.188    0.00    2.52759   1.80 
   1   3  -3 o  2747.210   2782.373    0.00    2.52700   3.75 
   1   0  -4 o  463.107    465.143     0.00    2.57156   0.65 
   3  -2   1 o  1134.406   1161.763   180.00   2.56328   1.59 
   1   1   3 o   4.622      4.884      0.00    2.54312   0.01 
   1   2  -4 o  2611.246   2438.920   180.00   2.49289   3.47 
   3   0   1 o  1805.481   1833.091   180.00   2.58094   2.57 
   2   1   2 o  3966.291   3950.842    0.00    2.57027   5.60 
   2  -1   3 o  952.128    977.079     0.00    2.51931   1.29 
   2  -2   3 o  1746.120   1754.986    0.00    2.47063   2.28 
   0   0   4 o  1138.086   1195.896   180.00   2.51526   1.54 
   3   1   0 o  617.969    644.314     0.00    2.55139   0.86 
   1  -2  -3 o  1705.716   1584.236   180.00   2.48811   2.26 
   2   2   1 o  500.143    555.936    180.00   2.50962   0.67 
   2   1  -4 o  2614.007   2398.750    0.00    2.42179   3.28 
   3   0  -3 o  116.172    109.753    180.00   2.44668   0.15 
   1  -1   4 o  47.121     48.335      0.00    2.39605   0.06 
   1  -4   1 o  531.699    536.984    180.00   2.39444   0.65 
   1  -4   2 o  1278.521   1118.941   180.00   2.32901   1.48 
   0   4  -1 o  1880.588   1570.129    0.00    2.37122   2.26 
   1  -3  -2 o  597.818    574.979    180.00   2.41148   0.74 
   2   0  -4 o  216.302    210.178    180.00   2.41058   0.27 
   3  -2  -2 o  165.524    168.327    180.00   2.40724   0.21 
   2   3  -2 o  501.078    415.046     0.00    2.36289   0.60 
   1   3   1 o  1048.120   1103.782    0.00    2.40497   1.30 
   1  -2   4 o   0.502      0.425     180.00   2.35799   0.00 
   0   2   3 o  1869.152   1901.882    0.00    2.39432   2.29 
   2   0   3 o  371.654    374.610    180.00   2.38778   0.45 
   0   4  -2 o  351.624    331.010    180.00   2.34010   0.41 
   2  -2  -3 o  17.874     15.539      0.00    2.38132   0.02 
   3   1  -3 o  125.720    101.248     0.00    2.37493   0.15 
   1  -4   0 o   0.706      0.610      0.00    2.32975   0.00 
   0   3  -4 o  50.219     45.096      0.00    2.28268   0.06 
   3  -1   2 o  670.851    562.679    180.00   2.36988   0.81 
   2   3  -1 o  224.979    189.865     0.00    2.36705   0.27 
   3  -1  -3 o   9.379      8.806     180.00   2.35109   0.01 
   1  -1  -4 o  46.841     45.148     180.00   2.34062   0.05 
   3  -3   0 o  13.082     12.501      0.00    2.33989   0.02 
   3  -3   1 o  1124.990   1029.794    0.00    2.29783   1.27 
   3  -2   2 o  747.559    671.378     0.00    2.32544   0.86 
   0   3   2 o  24.879     22.938      0.00    2.32304   0.03 
   0   4   0 o  38.206     31.709      0.00    2.27716   0.04 
   2   2  -4 o  268.109    219.927    180.00   2.27615   0.30 
   2  -3  -2 o  729.762    614.618     0.00    2.31662   0.84 
   2  -3   3 o  323.313    253.826    180.00   2.26920   0.36 
   1   3  -4 o  474.672    609.213    180.00   2.22541   0.50 
   3   2  -1 o  30.846     26.470     180.00   2.30300   0.03 
   3   2  -2 o  61.805     58.198      0.00    2.29285   0.07 
   3   1   1 o  3378.980   3186.314    0.00    2.32342   3.90 
   2  -4   1 o  594.447    599.264    180.00   2.24337   0.64 
   1   0   4 o  1090.635   927.936    180.00   2.27848   1.21 
   0   4  -3 o  2271.203   2153.325    0.00    2.19723   2.35 
   2   3  -3 o  37.320     40.339     180.00   2.23889   0.04 
   0   1   4 o  26.127     21.111     180.00   2.26460   0.03 
   1  -3   4 o  565.139    522.800     0.00    2.18413   0.58 
   3  -3  -1 o  617.750    535.476     0.00    2.26077   0.68 
   2  -4   0 o  71.692     105.265     0.00    2.21760   0.08 
   2   3   0 o  33.659     32.406     180.00   2.24957   0.04 
   2  -1  -4 o  2064.919   1998.794   180.00   2.24855   2.23 
   1  -4   3 o  1178.182   1165.133   180.00   2.16143   1.18 
   3   0   2 o  899.875    748.215     0.00    2.26290   0.99 
   1   4  -2 o  1830.109   1676.205   180.00   2.18956   1.88 
   1   4  -1 o  27.331     24.787     180.00   2.18740   0.03 
   3   2  -3 o  169.992    169.576     0.00    2.17367   0.17 
   3   2   0 o  363.232    339.783    180.00   2.19991   0.38 
   4  -1  -1 o  15.776     14.733      0.00    2.19952   0.02 
   2  -4   2 o  92.315     91.266      0.00    2.16264   0.09 
   1  -4  -1 o  562.917    553.837    180.00   2.16261   0.56 
   3  -3   2 o  287.803    284.997    180.00   2.15215   0.29 
   4   0  -1 o  35.056     34.298     180.00   2.17753   0.04 
   2   2   2 o  29.377     29.025      0.00    2.17597   0.03 
   4  -1   0 o  512.918    507.602    180.00   2.17542   0.52 
   1   4  -3 o  1857.430   1972.166   180.00   2.09459   1.74 
   1   1  -5 o  48.604     52.722      0.00    2.12463   0.05 
   1   2   3 o  3212.126   3160.988   180.00   2.15639   3.20 
   1   2  -5 o  1065.983   1272.791   180.00   2.07519   0.98 
   2   1   3 o  4752.330   4881.158    0.00    2.14504   4.68 
   3   1  -4 o  314.455    342.003     0.00    2.10958   0.30 
   0   2  -5 o  19.146     23.454      0.00    2.07168   0.02 
   3  -2  -3 o  252.079    264.055    180.00   2.13748   0.25 
   4   0  -2 o  1591.978   1742.955   180.00   2.13282   1.55 
   0   4   1 o  220.516    230.611    180.00   2.09610   0.21 
   2  -4  -1 o  3324.192   3490.416    0.00    2.09543   3.12 
   3   0  -4 o  903.586    990.490    180.00   2.12874   0.88 
   0   1  -5 o  577.962    610.934     0.00    2.09457   0.54 
   4  -1  -2 o  2054.173   2234.022   180.00   2.12307   1.98 
   1   4   0 o  775.736    866.974     0.00    2.08891   0.72 
   2  -2   4 o  173.086    200.691    180.00   2.08111   0.16 
   2   3  -4 o  3233.175   3332.678   180.00   2.04277   2.89 
   4  -2   0 o   4.074      4.430      0.00    2.10819   0.00 
   1   3   2 o  179.165    191.144    180.00   2.10183   0.17 
   4  -2  -1 o  79.094     83.244     180.00   2.10067   0.07 
   1   0  -5 o  12.191     14.750     180.00   2.06304   0.01 
   4   0   0 o  108.427    117.175    180.00   2.12372   0.10 
   3  -3  -2 o  254.032    269.056    180.00   2.09234   0.24 
   3  -2   3 o  418.264    427.053     0.00    2.05236   0.38 
   2  -1   4 o  629.419    729.315    180.00   2.08134   0.58 
   2  -4   3 o  546.281    503.747     0.00    2.00529   0.47 
   1  -3  -3 o  134.955    167.791    180.00   2.06356   0.12 
   1   1   4 o  151.024    180.307    180.00   2.06211   0.14 
   2   1  -5 o  85.919     87.658     180.00   2.02926   0.08 
   0   4  -4 o  1960.407   1865.143   180.00   1.99438   1.67 
   4  -1   1 o  1229.430   1383.230    0.00    2.05992   1.12 
   2   3   1 o   0.012      0.012      0.00    2.05633   0.00 
   3  -1   3 o  762.576    785.485    180.00   2.05519   0.69 
   1  -2  -4 o  86.278     87.894     180.00   2.05002   0.08 
   2  -3   4 o  556.348    552.850    180.00   1.98010   0.47 
   4   1  -1 o  2327.316   2378.312    0.00    2.04466   2.08 
   0   0   5 o  201.050    206.737     0.00    2.01221   0.17 
   3  -1  -4 o  10.918     11.510     180.00   2.03804   0.01 
   4   1  -2 o  25.922     27.354      0.00    2.03315   0.02 
   3  -4   0 o  2723.050   2490.542   180.00   1.99934   2.33 
   2   2  -5 o  599.408    622.272    180.00   1.96441   0.50 
   2   0  -5 o  1091.390   1006.795    0.00    1.99740   0.93 
   3   1   2 o  60.049     61.416      0.00    2.05574   0.05 
   4  -2   1 o  36.931     36.977      0.00    2.02801   0.03 
   3  -4   1 o  1992.204   1845.069    0.00    1.99722   1.70 
   2  -3  -3 o  325.953    325.302     0.00    2.02430   0.29 
   3   2   1 o  452.918    455.172     0.00    2.02249   0.40 
   3   2  -4 o  78.999     79.233     180.00   1.98875   0.07 
   0   3  -5 o  12.318     12.094      0.00    1.95303   0.01 
   1  -4   4 o  70.159     69.961      0.00    1.94808   0.06 
   3   3  -2 o  3383.999   3345.004   180.00   1.98071   2.84 
   2  -2  -4 o  69.718     68.138      0.00    2.00973   0.06 
   4  -2  -2 o  525.554    491.289    180.00   2.00810   0.45 
   4   0  -3 o  58.210     51.886     180.00   2.00593   0.05 
   1   3  -5 o  195.241    230.383     0.00    1.93528   0.16 
   1   4  -4 o  191.026    225.186     0.00    1.93516   0.15 
   0   3   3 o  264.894    266.713     0.00    1.98671   0.22 
   1  -2   5 o  118.187    116.179     0.00    1.95553   0.10 
   1  -1   5 o  3795.801   3677.960    0.00    1.95347   3.10 
   3  -3   3 o  498.908    484.567    180.00   1.95304   0.41 
   2   4  -2 o   0.602      0.583      0.00    1.95264   0.00 
   1  -5   1 o  4592.552   4581.814   180.00   1.92074   3.63 
   2   0   4 o  16.341     16.140      0.00    1.98069   0.01 
   1  -4  -2 o  120.531    117.273     0.00    1.94938   0.10 
   0   2   4 o  5997.620   5962.700    0.00    1.97632   5.02 
   4  -1  -3 o  1229.807   1262.268   180.00   1.97346   1.03 
   1  -5   2 o  1237.486   1223.307    0.00    1.90770   0.97 
   4   0   1 o  695.084    695.955     0.00    1.99086   0.59 
   3   3  -1 o  274.203    283.667    180.00   1.96328   0.23 
   2   4  -3 o  5846.978   5583.861   180.00   1.90194   4.53 
   2   4  -1 o  118.067    139.326     0.00    1.93216   0.09 
   3   0   3 o  31.851     33.020     180.00   1.96038   0.03 
   3  -4  -1 o  51.993     55.226      0.00    1.92667   0.04 
   0   5  -2 o  383.408    372.875    180.00   1.89439   0.29 
   3   3  -3 o  214.387    218.978     0.00    1.92412   0.17 
   4  -3   0 o  5462.705   5300.510    0.00    1.95070   4.45 
   4   1   0 o  2571.138   2553.960   180.00   1.97550   2.15 
   3  -4   2 o  23.682     23.641     180.00   1.92100   0.02 
   0   5  -1 o  22.513     23.255      0.00    1.88945   0.02 
   2  -4  -2 o  1218.973   1189.603    0.00    1.91773   0.96 
   4   1  -3 o  20.998     21.136     180.00   1.94482   0.02 
   1  -1  -5 o  1647.064   1613.683    0.00    1.91570   1.30 
   4  -3   1 o  66.891     66.317      0.00    1.90789   0.05 
   1  -3   5 o  1012.324   1042.731    0.00    1.87299   0.76 
   1   4   1 o  645.722    702.190     0.00    1.92772   0.51 
   4  -3  -1 o  547.198    546.423     0.00    1.92226   0.43 
   2  -5   1 o  838.859    828.329     0.00    1.85784   0.62 
   2  -1  -5 o  37.837     42.708     180.00   1.88123   0.03 
   1   0   5 o  23.891     24.378     180.00   1.86758   0.02 
   1  -5   0 o  2024.356   2038.592   180.00   1.86631   1.51 
   0   5  -3 o  945.193    977.400     0.00    1.83508   0.68 
   4  -1   2 o  97.401     97.199     180.00   1.89054   0.07 
   1  -5   3 o  35.462     35.837      0.00    1.83108   0.03 
   3  -3  -3 o  1067.801   1183.554   180.00   1.88664   0.81 
   4  -2   2 o   7.274      8.117     180.00   1.88631   0.01 
   2  -5   2 o  21.743     21.733      0.00    1.82996   0.02 
   0   1   5 o  6883.100   6788.293   180.00   1.85656   5.09 
   2   3  -5 o  130.297    124.685     0.00    1.82713   0.09 
   0   4   2 o  645.273    736.746    180.00   1.88273   0.49 
   2   2   3 o   2.052      2.251     180.00   1.87851   0.00 
   3   1  -5 o  831.634    831.809     0.00    1.85100   0.61 
   3   3   0 o  87.733     93.184      0.00    1.87732   0.07 
   3  -2  -4 o  376.462    385.501    180.00   1.87337   0.28 
   2   4   0 o  615.005    660.406     0.00    1.84676   0.45 
   3   0  -5 o  331.185    356.421     0.00    1.84409   0.24 
   2  -4   4 o  1197.870   1150.213   180.00   1.81575   0.85 
   0   4  -5 o  7774.442   7755.996   180.00   1.78048   5.29 
   4   2  -2 o  1819.016   1755.949    0.00    1.86306   1.35 
   4   0  -4 o  1212.160   1263.925    0.00    1.83501   0.88 
   4  -2  -3 o  2530.486   2473.297    0.00    1.85979   1.88 
   4   2  -1 o  1204.618   1173.824   180.00   1.85184   0.89 
   2  -5   0 o  282.801    259.361    180.00   1.82396   0.20 
   1   5  -2 o  1163.430   1124.021   180.00   1.79535   0.80 
   2   4  -4 o  495.794    480.873     0.00    1.79498   0.34 
   0   5   0 o  893.601    814.587     0.00    1.82173   0.64 
   3  -4   3 o  337.863    333.172    180.00   1.79307   0.23 
   2   3   2 o   1.728      1.878      0.00    1.84073   0.00 
   3   2  -5 o  435.168    434.155    180.00   1.78519   0.30 
   4   2  -3 o  1517.801   1451.591    0.00    1.81263   1.07 
   3   3  -4 o  449.028    424.470    180.00   1.81049   0.32 
   4  -3   2 o  1139.215   1061.521   180.00   1.80656   0.80 
   4   1  -4 o  14.531     13.526     180.00   1.80592   0.01 
   4  -3  -2 o  1542.542   1593.879    0.00    1.83118   1.11 
   1   3   3 o  46.264     43.423     180.00   1.82699   0.03 
   3  -4  -2 o  664.335    635.373    180.00   1.80077   0.46 
   4   1   1 o  3041.051   3291.502   180.00   1.84730   2.23 
   1   1  -6 o  561.760    616.709     0.00    1.77108   0.38 
   3  -2   4 o  5645.795   5381.098    0.00    1.79707   3.91 
   1   2   4 o  420.484    384.394     0.00    1.82024   0.30 
   3   2   2 o  1677.290   1554.418   180.00   1.81947   1.19 
   4   0   2 o  1248.066   1204.227    0.00    1.81776   0.88 
   4  -1  -4 o  1314.488   1320.629   180.00   1.79190   0.91 
   2   1   4 o  1914.875   1867.127    0.00    1.81651   1.36 
   1   2  -6 o  1509.075   1515.414   180.00   1.75881   1.00 
   1   5  -3 o  43.136     43.230      0.00    1.75854   0.03 
   0   5  -4 o  1091.112   1024.963    0.00    1.72770   0.70 
   1   4  -5 o  408.892    393.326     0.00    1.75171   0.27 
   3   1   3 o  87.122     83.838      0.00    1.80256   0.06 
   1   5  -1 o  117.053    122.474    180.00   1.77647   0.08 
   2  -5   3 o  610.412    568.362     0.00    1.74802   0.40 
   2  -2   5 o  41.735     45.354     180.00   1.77411   0.03 
   0   2  -6 o  1047.799   989.762    180.00   1.74281   0.68 
   3  -1  -5 o  15.014     16.343      0.00    1.76678   0.01 
   1  -5   4 o  42.091     41.891      0.00    1.71124   0.03 
   2  -3  -4 o  1631.870   1738.655   180.00   1.76366   1.09 
   1  -4   5 o  1788.965   1709.775    0.00    1.73366   1.15 
   1  -5  -1 o   0.202      0.204      0.00    1.75982   0.00 
   4   2   0 o  23.819     22.881      0.00    1.78213   0.02 
   3  -1   4 o  1424.507   1386.475    0.00    1.78114   0.97 
   2  -1   5 o  4491.072   4448.038   180.00   1.75713   2.98 
   4  -4   0 o  62.699     61.961      0.00    1.75492   0.04 
   2   1  -6 o  717.043    672.232    180.00   1.72789   0.46 
   2  -3   5 o  23.439     21.805      0.00    1.72605   0.01 
   1  -3  -4 o   1.638      1.795      0.00    1.77479   0.00 
   3  -5   1 o  1650.664   1525.387   180.00   1.72490   1.05 
   3  -3   4 o  2437.137   2241.385   180.00   1.74557   1.59 
   5  -1  -1 o  966.946    1059.468   180.00   1.76604   0.65 
   0   1  -6 o  50.787     49.597     180.00   1.73976   0.03 
   4  -4   1 o  3312.892   3247.264   180.00   1.73970   2.15 
   2  -5  -1 o  534.596    526.291    180.00   1.73759   0.35 
   3  -5   0 o  3305.585   3299.326   180.00   1.71048   2.08 
   1  -4  -3 o  2484.305   2389.896    0.00    1.73488   1.60 
   1  -2  -5 o  50.093     47.118      0.00    1.73001   0.03 
   2   2  -6 o  301.349    299.440     0.00    1.70246   0.19 
   1   5  -4 o  1157.502   1149.599   180.00   1.67541   0.70 
   2  -4  -3 o  2463.316   2263.162    0.00    1.72561   1.57 
   3   3   1 o  613.759    545.638    180.00   1.74660   0.40 
   1   4   2 o  13.748     12.615      0.00    1.74398   0.01 
   1   0  -6 o  693.496    669.455     0.00    1.71891   0.44 
   2  -2  -5 o  327.944    318.666     0.00    1.71857   0.21 
   4  -2   3 o  15.656     15.277     180.00   1.71827   0.01 
   4  -4  -1 o  917.533    895.446    180.00   1.71814   0.58 
   5  -1   0 o  949.542    949.413    180.00   1.73970   0.62 
   5   0  -1 o  125.193    125.618    180.00   1.73962   0.08 
   5  -1  -2 o  1463.514   1466.938    0.00    1.73918   0.95 
   3  -5   2 o   5.604      5.525     180.00   1.68989   0.00 
   4   2  -4 o  5162.441   5162.020    0.00    1.71405   3.26 
   1   3  -6 o  1286.970   1236.615   180.00   1.68589   0.79 
   0   3  -6 o  143.452    137.659     0.00    1.68506   0.09 
   0   5   1 o  157.748    157.396     0.00    1.70922   0.10 
   5   0  -2 o  1746.395   1642.212    0.00    1.72981   1.12 
   1   5   0 o  231.671    232.995    180.00   1.70681   0.14 
   3   4  -2 o  335.011    337.672    180.00   1.70579   0.21 
   5  -2  -1 o  1180.302   1107.670   180.00   1.72794   0.76 
   1   1   5 o  49.023     45.392      0.00    1.72652   0.03 
   4  -3  -3 o  287.457    285.559     0.00    1.70110   0.18 
   2   4   1 o  470.701    453.662     0.00    1.71925   0.30 
   5  -2   0 o  738.796    717.404     0.00    1.71882   0.47 
   2   0  -6 o   9.809      9.677      0.00    1.69281   0.01 
   3   3  -5 o  1771.423   1722.800   180.00   1.66712   1.06 
   4  -2  -4 o  2338.149   2339.974    0.00    1.69029   1.43 
   0   3   4 o  338.015    339.470    180.00   1.71205   0.21 
   4  -1   3 o  10.869     11.008     180.00   1.70581   0.01 
   3   4  -3 o  7135.617   6792.289    0.00    1.68390   4.34 
   1  -2   6 o  14.004     14.826     180.00   1.65998   0.01 
   3  -3  -4 o  7082.286   6785.763    0.00    1.68257   4.31 
   2   4  -5 o  1724.779   1847.604    0.00    1.65736   1.02 
   3   0   4 o  1656.214   1647.753   180.00   1.70279   1.03 
   2  -5   4 o  198.015    207.839     0.00    1.63151   0.11 
   2   0   5 o  12.204     11.948      0.00    1.68035   0.01 
   3   4  -1 o  47.599     46.824      0.00    1.67969   0.03 
   5   0   0 o  877.737    869.587    180.00   1.69898   0.54 
   0   0   6 o  6949.173   6874.710    0.00    1.67684   4.20 
   4  -4   2 o  374.086    370.724    180.00   1.67631   0.23 
   0   4   3 o  1426.423   1422.250   180.00   1.67510   0.86 
   4  -3   3 o   2.003      2.007      0.00    1.67168   0.00 
   4   3  -2 o  2255.468   2250.282    0.00    1.67040   1.35 
   4   1   2 o  581.885    593.273     0.00    1.69129   0.36 
   2   5  -2 o  713.214    701.013    180.00   1.64500   0.41 
   5  -2  -2 o   0.018      0.017     180.00   1.68761   0.00 
   3  -4   4 o  1162.235   1135.199    0.00    1.64214   0.67 
   4   0  -5 o  860.220    937.426     0.00    1.65479   0.51 
   0   2   5 o  176.293    177.947    180.00   1.67278   0.11 
   5   0  -3 o  1478.198   1493.905    0.00    1.67198   0.89 
   4   2   1 o  29.982     30.431      0.00    1.67159   0.02 
   2   5  -3 o  181.150    190.146    180.00   1.62758   0.10 
   3  -4  -3 o  5099.283   5345.703   180.00   1.65042   2.98 
   2  -4   5 o  1584.174   1654.322   180.00   1.62715   0.90 
   3  -5  -1 o   9.562      9.970      0.00    1.65016   0.01 
   3   1  -6 o  403.291    418.304    180.00   1.62480   0.23 
   4   3  -3 o  2035.188   2048.635   180.00   1.64749   1.19 
   4   1  -5 o  1217.845   1220.512   180.00   1.64708   0.71 
   2   3  -6 o  715.934    737.124     0.00    1.62391   0.41 
   5  -1   1 o  404.345    381.216    180.00   1.66680   0.24 
   5  -1  -3 o  1010.038   962.922     0.00    1.66587   0.60 
   1  -1   6 o  23.095     22.662      0.00    1.64471   0.01 
   1  -3   6 o  21.625     21.915      0.00    1.62170   0.01 
   0   5  -5 o  374.218    367.113    180.00   1.59550   0.20 
   3  -2  -5 o  137.668    133.130    180.00   1.64230   0.08 
   5  -3   0 o  4271.741   4127.191    0.00    1.64251   2.48 
   3   4  -4 o  1447.952   1430.322    0.00    1.61919   0.82 
   5  -2   1 o   4.828      4.924      0.00    1.66251   0.00 
   5   1  -2 o  676.027    694.458    180.00   1.66229   0.40 
   4  -4  -2 o  306.468    300.743     0.00    1.63832   0.18 
   5  -3  -1 o  12.274     12.438     180.00   1.63666   0.01 
   5   1  -1 o  69.269     76.640     180.00   1.65668   0.04 
   3  -5   3 o   3.423      3.394      0.00    1.61374   0.00 
   0   4  -6 o  306.240    320.723    180.00   1.58264   0.16 
   4   3  -1 o  73.587     74.870      0.00    1.64819   0.04 
   1  -5  -2 o  11.441     11.941     180.00   1.62553   0.01 
   1  -6   2 o  2324.190   2120.434    0.00    1.60271   1.28 
   1  -6   1 o  3608.634   3482.640    0.00    1.59759   1.98 
   2   5  -1 o  2042.075   2012.568   180.00   1.61933   1.15 
   2  -5  -2 o  546.292    535.706    180.00   1.61883   0.31 
   1   4  -6 o  2798.129   2817.721    0.00    1.57230   1.49 
   1  -5   5 o  500.821    505.149     0.00    1.57235   0.27 
   4   0   3 o  6198.128   6077.978   180.00   1.63795   3.57 
   1  -1  -6 o  1273.487   1239.046   180.00   1.61754   0.72 
   2   3   3 o   0.060      0.062     180.00   1.63619   0.00 
   3   2  -6 o  168.593    170.093    180.00   1.59214   0.09 
   1  -6   3 o  2146.994   2242.510   180.00   1.56832   1.14 
   2   2   4 o  282.220    303.631    180.00   1.63229   0.16 
   3   4   0 o  2127.945   2149.067    0.00    1.61172   1.19 
   4  -1  -5 o  2214.572   2196.031   180.00   1.60984   1.23 
   1   5  -5 o  224.775    242.590    180.00   1.56385   0.12 
   2  -1  -6 o   1.571      1.482     180.00   1.60727   0.00 
   3   0  -6 o  851.726    800.628     0.00    1.60705   0.47 
   5  -3   1 o  310.295    283.135     0.00    1.60589   0.17 
   0   6  -2 o  326.503    344.660     0.00    1.58352   0.18 
   0   6  -3 o   6.603      6.855      0.00    1.56006   0.00 
   5   1  -3 o  827.088    859.697     0.00    1.62393   0.47 
   3   2   3 o   7.838      8.169      0.00    1.62343   0.00 
   1   5   1 o  599.492    529.879     0.00    1.60249   0.33 
   4  -4   3 o  1814.858   1872.831    0.00    1.57898   0.97 
   5   0   1 o   0.035      0.033      0.00    1.61755   0.00 
   2  -6   1 o  50.352     50.406      0.00    1.57163   0.03 
   2   5  -4 o  5547.396   5583.441    0.00    1.57095   2.94 
   0   6  -1 o  422.377    439.842    180.00   1.56850   0.22 
   5  -3  -2 o  1765.907   1862.730   180.00   1.58963   0.96 
   5   1   0 o   3.313      3.225     180.00   1.60837   0.00 
   4   2  -5 o  1028.990   1087.579    0.00    1.58882   0.56 
   5  -2  -3 o   5.704      5.376     180.00   1.60732   0.00 
   2  -6   2 o  725.789    780.634    180.00   1.56646   0.38 
   4   3  -4 o  1537.179   1646.600   180.00   1.58466   0.83 
   1  -4   6 o  974.069    1068.800   180.00   1.53995   0.50 
   4  -5   1 o  44.467     47.021     180.00   1.56136   0.02 
   4  -5   0 o  468.858    486.707     0.00    1.56038   0.25 
   1   0   6 o  2008.914   2074.686   180.00   1.58005   1.08 
   5   0  -4 o  180.637    186.182    180.00   1.57918   0.10 
   3   3   2 o  5138.735   4994.459   180.00   1.59796   2.82 
   3  -2   5 o  376.825    388.401     0.00    1.57789   0.20 
   1   3   4 o  2585.892   2522.389    0.00    1.59602   1.42 
   3  -3   5 o  1792.843   1849.633   180.00   1.55423   0.93 
   0   5   2 o   0.007      0.007     180.00   1.57519   0.00 
   1  -6   0 o  126.438    130.644     0.00    1.55405   0.07 
   0   1   6 o  83.611     82.432      0.00    1.57133   0.04 
   2  -6   3 o  2993.335   3295.147    0.00    1.52505   1.50 
   4   3   0 o  721.826    785.787    180.00   1.58591   0.39 
   3   1   4 o  24.220     26.079      0.00    1.58379   0.01 
   5  -1  -4 o  941.502    1016.382   180.00   1.56205   0.49 
   2  -6   0 o  1729.629   1896.236   180.00   1.53949   0.88 
   3  -5  -2 o  2675.495   2682.670    0.00    1.55710   1.40 
   4  -3  -4 o  345.145    344.234    180.00   1.55666   0.18 
   2   4   2 o  722.796    731.370     0.00    1.57490   0.39 
   2   5   0 o  3630.958   3625.476   180.00   1.55621   1.89 
   2  -2   6 o  312.906    345.627     0.00    1.53520   0.16 
   3  -1   5 o  5678.060   5725.217    0.00    1.55524   2.95 
   2   4  -6 o  326.249    369.317     0.00    1.51186   0.16 
   3  -5   4 o  92.845     105.052    180.00   1.51171   0.05 
   5  -2   2 o  183.174    178.722     0.00    1.57158   0.10 
   4  -2   4 o  162.924    179.290    180.00   1.55021   0.08 
   5   1  -4 o  115.496    127.818     0.00    1.54996   0.06 
   1   4   3 o  67.093     76.191     180.00   1.56511   0.04 
   1   2   5 o  573.248    648.556     0.00    1.56491   0.30 
   2   1   5 o  15.320     17.291     180.00   1.56453   0.01 
   4  -5   2 o  282.891    304.750     0.00    1.52597   0.14 
   2  -3  -5 o  1455.966   1625.429   180.00   1.54541   0.75 
   3   4  -5 o  784.288    857.850     0.00    1.52511   0.39 
   5  -1   2 o  28.943     32.215     180.00   1.56319   0.02 
   0   6  -4 o  14.468     15.252      0.00    1.50292   0.01 
   1   6  -3 o  1218.478   1278.031    0.00    1.50260   0.59 
   2  -4  -4 o  23.359     26.116     180.00   1.54394   0.01 
   3  -1  -6 o   1.384      1.543     180.00   1.54355   0.00 
   1  -3  -5 o  180.788    201.889     0.00    1.54329   0.09 
   1  -6   4 o  2557.823   2664.837   180.00   1.50146   1.24 
   2  -5   5 o  384.231    399.160     0.00    1.50101   0.19 
   1  -4  -4 o  2036.376   2244.256    0.00    1.54102   1.04 
   1   2  -7 o  606.737    748.376    180.00   1.51780   0.30 
   0   6   0 o   1.148      1.452      0.00    1.51811   0.00 
   3   3  -6 o  12.491     15.364     180.00   1.51743   0.01 
   5   2  -2 o   5.206      5.232      0.00    1.55474   0.00 
   1   1  -7 o  1337.689   1554.101   180.00   1.51474   0.66 
   5  -3   2 o  779.122    866.895     0.00    1.53461   0.39 
   5   2  -3 o  57.558     64.375      0.00    1.53433   0.03 
   2  -3   6 o  834.282    964.619     0.00    1.51442   0.41 
   1   6  -2 o  278.341    321.895    180.00   1.51445   0.14 
   4  -4  -3 o  441.033    485.508     0.00    1.53189   0.22 
   5  -4   0 o  1649.039   1771.270   180.00   1.53042   0.83 
   2   5  -5 o   0.962      0.929      0.00    1.48631   0.00 
   4  -3   4 o   0.494      0.525      0.00    1.52669   0.00 
   4   2   2 o  673.148    747.509     0.00    1.54183   0.34 
   4  -2  -5 o  14.169     15.877     180.00   1.52383   0.01 
   4  -5  -1 o  1342.912   1544.770   180.00   1.52325   0.67 
   5   2  -1 o  1916.334   2092.211    0.00    1.53868   0.98 
   1   3  -7 o  365.283    350.894     0.00    1.48017   0.17 
   0   2  -7 o  130.985    135.623    180.00   1.49869   0.06 
   3  -6   1 o  1336.999   1387.152    0.00    1.49802   0.65 
   2   1  -7 o  333.399    347.750     0.00    1.49604   0.16 
   4   1   3 o  1756.223   1965.815    0.00    1.53229   0.89 
   5  -4  -1 o  98.363     114.016     0.00    1.51475   0.05 
   4   3  -5 o  311.171    324.154    180.00   1.49440   0.15 
   2  -1   6 o  185.704    211.631    180.00   1.51327   0.09 
   4  -1   4 o  436.992    462.211     0.00    1.52979   0.22 
   1   6  -1 o  46.519     47.830     180.00   1.49261   0.02 
   0   3  -7 o  927.213    909.980     0.00    1.47130   0.43 
   5  -4   1 o  799.785    907.384    180.00   1.51128   0.39 
   5  -3  -3 o  2155.296   2450.516   180.00   1.51114   1.06 
   5   1   1 o  2980.731   3054.044    0.00    1.52757   1.50 
   4   1  -6 o  652.298    654.502    180.00   1.49012   0.31 
   3  -4   5 o  1291.621   1294.128    0.00    1.49005   0.62 
   2   2  -7 o   4.537      4.527     180.00   1.48962   0.00 
   0   1  -7 o  70.694     68.126     180.00   1.48644   0.03 
   3  -6   2 o  3062.490   2926.588    0.00    1.48500   1.45 
   5  -2  -4 o  78.203     81.623     180.00   1.50280   0.04 
   1  -6  -1 o   9.640      9.219      0.00    1.48074   0.00 
   3   5  -2 o   0.004      0.004     180.00   1.47996   0.00 
   3   4   1 o  823.436    982.995     0.00    1.51577   0.41 
   3  -3  -5 o  1752.826   1811.545    0.00    1.49861   0.85 
   1   6  -4 o  90.941     75.820     180.00   1.45931   0.04 
   3  -4  -4 o   6.503      6.752      0.00    1.49801   0.00 
   0   5  -6 o  370.698    316.021    180.00   1.45802   0.17 
   3  -6   0 o  1967.208   1902.281    0.00    1.47840   0.93 
   2  -6  -1 o  1353.481   1309.812   180.00   1.47638   0.64 
   2  -4   6 o  1069.802   942.627     0.00    1.45580   0.49 
   5   0   2 o  284.758    324.021    180.00   1.51150   0.14 
   3   5  -3 o  14.821     14.343      0.00    1.47548   0.01 
   2  -6   4 o  484.475    430.400     0.00    1.45532   0.22 
   0   3   5 o  691.809    715.918    180.00   1.49282   0.33 
   3   0   5 o  1431.046   1466.238   180.00   1.49183   0.69 
   2  -2  -6 o   0.054      0.055      0.00    1.49181   0.00 
   1  -2  -6 o  316.391    319.427    180.00   1.49063   0.15 
   1   0  -7 o  346.503    343.526     0.00    1.47170   0.16 
   0   4   4 o  889.220    892.214    180.00   1.49003   0.42 
   2  -5  -3 o  1397.775   1367.276   180.00   1.48786   0.67 
   4   4  -2 o  21.230     20.249     180.00   1.48611   0.01 
   4   0  -6 o  145.970    138.914     0.00    1.48552   0.07 
   1  -5  -3 o  152.730    143.781     0.00    1.48452   0.07 
   2   3  -7 o  78.911     71.257     180.00   1.44544   0.04 
   4  -4   4 o  175.925    150.257     0.00    1.46478   0.08 
   1   5   2 o  1123.828   1059.588    0.00    1.48198   0.53 
   2   0  -7 o  24.222     19.787      0.00    1.46326   0.01 
   1   1   6 o  4120.612   3902.505   180.00   1.48163   1.95 
   5   2  -4 o  3511.173   3328.948   180.00   1.48149   1.66 
   4   4  -3 o  4754.548   4578.910   180.00   1.47988   2.24 
   3  -6   3 o  637.826    536.352    180.00   1.44176   0.29 
   1   5  -6 o  717.329    601.901     0.00    1.44144   0.32 
   4   3   1 o  85.063     90.054      0.00    1.49599   0.04 
   4  -5   3 o  66.245     53.886     180.00   1.46107   0.03 
   4   2  -6 o  1230.711   1077.300   180.00   1.45606   0.56 
   5   2   0 o  883.406    880.718     0.00    1.48937   0.42 
   1  -5   6 o   0.042      0.033     180.00   1.43262   0.00 
   5   0  -5 o  831.857    811.075     0.00    1.46801   0.39 
   2   5   1 o  647.876    626.494    180.00   1.46767   0.30 
   5  -4  -2 o  545.377    515.674     0.00    1.46732   0.25 
   5  -2   3 o  70.304     55.220      0.00    1.46221   0.03 
   4   4  -4 o  183.709    157.804    180.00   1.44309   0.08 
   5  -4   2 o  1583.844   1266.075   180.00   1.46103   0.73 
   4   4  -1 o  2106.604   1653.246    0.00    1.46062   0.97 
   0   6  -5 o  413.802    350.262     0.00    1.42232   0.18 
   0   6   1 o  10.091      8.382     180.00   1.44173   0.00 
   1   6   0 o  14.551     11.989      0.00    1.44118   0.01 
   3   5  -4 o  1148.012   944.827    180.00   1.44057   0.51 
   1  -3   7 o  12.791     10.766      0.00    1.42107   0.01 
   4  -5  -2 o  3976.791   3401.566   180.00   1.45708   1.82 
   1  -2   7 o  80.931     64.420      0.00    1.43729   0.04 
   0   0   7 o  355.946    282.528     0.00    1.43729   0.16 
   6  -1  -1 o  705.373    725.777     0.00    1.47080   0.33 
   4   0   4 o  3196.554   3296.942   180.00   1.47029   1.49 
   5   1  -5 o  116.579    106.758     0.00    1.45391   0.05 
   2   0   6 o  6900.046   6343.073    0.00    1.45374   3.14 
   3   4  -6 o  1376.227   1172.967    0.00    1.41677   0.60 
   3   5  -1 o  60.787     56.611     180.00   1.45318   0.03 
   3   1  -7 o  366.961    281.322    180.00   1.43521   0.16 
   1  -6   5 o  873.343    777.695    180.00   1.41371   0.38 
   3  -2  -6 o  98.183     95.426     180.00   1.44891   0.04 
   6  -1  -2 o  30.752     24.209     180.00   1.46322   0.01 
   3  -5  -3 o   0.014      0.013      0.00    1.44729   0.00 
   3  -6  -1 o  585.351    475.096     0.00    1.42975   0.26 
   0   4  -7 o  428.466    399.874     0.00    1.41028   0.18 
   1   4  -7 o  1077.904   1008.266    0.00    1.41015   0.46 
   0   2   6 o  710.291    651.569    180.00   1.44567   0.32 
   5  -1  -5 o  1052.962   945.636    180.00   1.44475   0.47 
   4  -1  -6 o  86.204     74.403      0.00    1.44330   0.04 
   5  -3   3 o  248.766    205.440    180.00   1.44152   0.11 
   6  -2  -1 o  144.581    122.817     0.00    1.45718   0.07 
   2   3   4 o  2226.198   1946.179   180.00   1.45602   1.02 
   3   2  -7 o  912.625    766.630     0.00    1.42141   0.40 
   0   5   3 o  189.825    152.366     0.00    1.43812   0.08 
   1  -1   7 o  49.847     41.544      0.00    1.41839   0.02 
   3   3   3 o  464.978    463.246    180.00   1.45065   0.21 
   3  -5   5 o  14.018     14.205     180.00   1.39900   0.01 
   6   0  -2 o  265.510    264.275     0.00    1.44900   0.12 
   3   2   4 o  1756.125   1739.563    0.00    1.44860   0.79 
   6  -1   0 o  213.303    206.423     0.00    1.44757   0.10 
   3   0  -7 o  311.362    275.131     0.00    1.41407   0.13 
   6   0  -1 o  235.385    223.527     0.00    1.44685   0.11 
   5  -1   3 o  1220.859   1130.659    0.00    1.44595   0.55 
   2   6  -2 o  5023.200   4485.869    0.00    1.41291   2.16 
   5   3  -2 o  759.347    632.144    180.00   1.42914   0.33 
   6  -2   0 o  2246.302   1974.522   180.00   1.44385   1.01 
   1   6  -5 o  18.133     18.577      0.00    1.39212   0.01 
   2   6  -3 o  67.507     62.774     180.00   1.41047   0.03 
   6  -2  -2 o  77.744     62.925     180.00   1.44043   0.03 
   2   5  -6 o  9157.642   9565.016   180.00   1.38689   3.80 
   5   3  -3 o  522.423    435.799     0.00    1.42210   0.23 
   5  -5   0 o  1713.049   1720.409   180.00   1.40394   0.73 
   2   2   5 o  60.196     43.226      0.00    1.43293   0.03 
   2   4   3 o  309.512    227.002    180.00   1.43179   0.14 
   3   5  -5 o  38.048     47.218     180.00   1.38123   0.02 
   2   6  -4 o  58.363     72.119      0.00    1.38126   0.02 
   4  -4  -4 o  1925.379   1681.456   180.00   1.41498   0.83 
   4  -3  -5 o  98.173     85.922      0.00    1.41486   0.04 
   5  -3  -4 o  2310.759   2035.582   180.00   1.41443   1.00 
   5  -5   1 o  516.648    532.818     0.00    1.39753   0.22 
   5   1   2 o   0.225      0.195      0.00    1.42816   0.00 
   3  -2   6 o  1165.762   1231.133   180.00   1.39563   0.49 
   4  -6   1 o  97.628     102.298     0.00    1.39469   0.04 
   6  -1  -3 o  636.717    565.208    180.00   1.42620   0.28 
   1  -7   2 o  74.453     88.034     180.00   1.37628   0.03 
   3   3  -7 o  227.605    263.482    180.00   1.37551   0.09 
   3  -6   4 o  1675.377   1943.546   180.00   1.37563   0.68 
   2  -6  -2 o  1052.836   1085.979    0.00    1.39296   0.44 
   6  -3  -1 o  62.004     59.916      0.00    1.40897   0.03 
   4   4   0 o  32.183     31.716      0.00    1.40799   0.01 
   1  -4   7 o  5717.554   6357.608   180.00   1.37307   2.32 
   2   4  -7 o  275.529    305.537     0.00    1.37270   0.11 
   4   3  -6 o  32.542     32.837     180.00   1.39065   0.01 
   6   0  -3 o  1239.138   1031.804   180.00   1.42188   0.54 
   1   3   5 o  1260.948   1255.927    0.00    1.40675   0.54 
   1  -6  -2 o  3667.787   3660.731   180.00   1.38962   1.53 
   2  -5   6 o  221.589    244.961     0.00    1.37131   0.09 
   5   2  -5 o  5850.627   5861.319   180.00   1.40550   2.49 
   6  -3   0 o  1131.703   1139.292   180.00   1.40546   0.48 
   5  -4   3 o  5044.419   5084.082   180.00   1.38826   2.10 
   2   6  -1 o  3012.631   3032.292    0.00    1.38815   1.25 
   3  -3   6 o  2732.601   2803.653   180.00   1.38741   1.13 
   1   4   4 o  529.624    535.287    180.00   1.40381   0.22 
   4  -3   5 o  554.279    573.633     0.00    1.38675   0.23 
   2  -6   5 o  1635.859   1794.158   180.00   1.36832   0.66 
   4  -6   0 o  272.405    291.291     0.00    1.38565   0.11 
   6   0   0 o  628.167    537.493     0.00    1.41582   0.27 
   5   2   1 o  1852.386   1596.711   180.00   1.41562   0.80 
   3   5   0 o  18.944     18.995      0.00    1.39988   0.01 
   1  -7   1 o  642.320    714.108     0.00    1.36506   0.26 
   4   4  -5 o   1.852      2.262     180.00   1.38208   0.00 
   2  -1  -7 o  686.437    698.820     0.00    1.39837   0.29 
   1  -1  -7 o  183.173    187.492     0.00    1.39800   0.08 
   6  -2  -3 o  2986.253   3175.339    0.00    1.39652   1.26 
   5  -4  -3 o   2.767      2.931     180.00   1.39637   0.00 
   1  -7   3 o  104.271    119.294     0.00    1.36211   0.04 
   4  -2   5 o  830.281    881.359    180.00   1.39578   0.35 
   4   2   3 o  458.021    437.554     0.00    1.40972   0.20 
   2  -7   2 o  963.103    1113.434   180.00   1.36014   0.38 
   4  -6   2 o  193.555    237.010     0.00    1.37735   0.08 
   4  -5   4 o  144.204    175.851    180.00   1.37724   0.06 
   5   3  -1 o   1.539      1.520     180.00   1.40788   0.00 
   3   4   2 o  559.199    558.055     0.00    1.40680   0.24 
   0   7  -2 o  621.414    722.179    180.00   1.35700   0.25 
   2  -7   1 o  413.942    478.317     0.00    1.35570   0.16 
   5  -2  -5 o  2114.965   2101.872    0.00    1.38908   0.88 
   5   3  -4 o  259.573    260.468    180.00   1.38796   0.11 
   6  -2   1 o  445.624    448.917    180.00   1.40279   0.19 
   3   1   5 o  916.793    918.424    180.00   1.40122   0.39 
   6   1  -2 o  764.593    764.530     0.00    1.40084   0.32 
   6  -3  -2 o  1008.611   1077.881   180.00   1.38546   0.42 
   6   1  -3 o  1438.764   1604.971   180.00   1.38447   0.59 
   5  -5  -1 o  1029.322   1194.055    0.00    1.38351   0.42 
   0   7  -3 o  7514.507   7833.592   180.00   1.34974   2.95 
   6  -1   1 o  1148.436   1183.681   180.00   1.39763   0.48 
   2  -4  -5 o  2159.950   2591.285   180.00   1.38285   0.89 
   3  -4   6 o  24.027     25.198     180.00   1.34875   0.01 
   5   0   3 o  1377.954   1490.315    0.00    1.39621   0.58 
   0   6  -6 o  659.039    663.359     0.00    1.32959   0.25 
   5  -5   2 o  204.395    226.198     0.00    1.36535   0.08 
   0   5  -7 o  353.646    363.494    180.00   1.32717   0.13 
   3  -1  -7 o  1011.386   1167.880   180.00   1.36229   0.40 
   4   3   2 o  86.415     87.961     180.00   1.39235   0.04 
   6   1  -1 o  732.066    722.207     0.00    1.39046   0.31 
   3  -6  -2 o  92.854     108.295    180.00   1.36006   0.04 
   6  -3   1 o  122.939    142.202     0.00    1.37552   0.05 
   1  -4  -5 o  481.656    529.480     0.00    1.37398   0.20 
   2  -7   3 o  336.860    339.852    180.00   1.34019   0.13 
   4  -1   5 o  495.691    541.093     0.00    1.37270   0.20 
   0   7  -1 o  36.551     36.650     180.00   1.33997   0.01 
   4  -5  -3 o  686.939    753.087     0.00    1.37257   0.28 
   4  -2  -6 o  1071.012   1175.338   180.00   1.37224   0.43 
   3  -1   6 o  20.769     22.868     180.00   1.37178   0.01 
   1   5  -7 o  215.956    225.096    180.00   1.32054   0.08 
   6   0  -4 o  293.045    324.294    180.00   1.37009   0.12 
   4   1   4 o  44.704     50.768      0.00    1.38411   0.02 
   4  -6   3 o  2044.999   1984.360    0.00    1.33642   0.79 
   2   1   6 o  91.222     99.291     180.00   1.36874   0.04 
   1   6   1 o  159.406    173.651    180.00   1.36867   0.06 
   1   0   7 o  797.308    866.992     0.00    1.36825   0.32 
   1   2   6 o  226.459    243.947     0.00    1.36765   0.09 
   1  -6   6 o  442.993    450.853    180.00   1.31660   0.17 
   4  -6  -1 o  63.668     67.284     180.00   1.35170   0.03 
   2   5   2 o  134.644    144.921     0.00    1.36676   0.05 
   2  -3  -6 o  6055.025   6587.247    0.00    1.36630   2.44 
   6  -1  -4 o   0.876      0.955     180.00   1.36596   0.00 
   5   1  -6 o  462.976    476.941     0.00    1.34884   0.18 
   1   2  -8 o  2532.292   2526.489    0.00    1.33079   0.97 
   2  -2   7 o  52.270     56.249     180.00   1.34762   0.02 
   4  -4   5 o   8.087      8.752      0.00    1.34741   0.00 
   2   6  -5 o  449.772    451.133    180.00   1.32992   0.17 
   4   1  -7 o  402.687    451.403    180.00   1.34612   0.16 
   0   1   7 o  668.932    781.137     0.00    1.36126   0.27 
   1   6  -6 o  1545.495   1492.455    0.00    1.31060   0.57 
   1   5   3 o  561.479    658.715     0.00    1.35959   0.22 
   2  -5  -4 o  38.514     45.165      0.00    1.35879   0.02 
   1  -3  -6 o  1868.961   2198.922   180.00   1.35830   0.74 
   1  -7   4 o  142.464    148.997     0.00    1.32479   0.05 
   2  -3   7 o  144.130    146.593     0.00    1.34094   0.06 
   3  -4  -5 o  795.047    937.626     0.00    1.35596   0.32 
   2   6   0 o  251.770    252.680    180.00   1.34022   0.10 
   5   0  -6 o  2089.798   2256.530    0.00    1.35232   0.82 
   0   7  -4 o  346.817    360.450     0.00    1.31930   0.13 
   0   6   2 o  99.413     101.222    180.00   1.35080   0.04 
   4   0  -7 o  301.308    290.753     0.00    1.33526   0.12 
   1  -5  -4 o  18.837     18.856      0.00    1.34983   0.01 
   2   2  -8 o  14.257     14.695      0.00    1.31755   0.01 
   5   3   0 o  2504.490   2953.818    0.00    1.36189   1.00 
   5  -2   4 o  1060.158   1120.951   180.00   1.34803   0.42 
   5   3  -5 o  86.887     86.021      0.00    1.33219   0.03 
   6   0   1 o  54.848     65.186      0.00    1.36108   0.02 
   3  -7   1 o  839.056    827.189    180.00   1.31393   0.31 
   1  -7   0 o  329.009    328.572     0.00    1.33022   0.13 
   6   1  -4 o  43.334     48.552      0.00    1.34401   0.02 
   1   3  -8 o  1598.878   1552.280    0.00    1.31218   0.59 
   0   2  -8 o  4018.304   3886.705   180.00   1.31197   1.49 
   3  -7   2 o  280.908    272.314     0.00    1.31208   0.10 
   4   2  -7 o  1136.652   1158.190   180.00   1.32808   0.43 
   2  -7   0 o  2183.797   2240.480    0.00    1.32757   0.83 
   6   1   0 o  101.939    121.873    180.00   1.35504   0.04 
   4   5  -3 o  1310.942   1380.690    0.00    1.32581   0.50 
   2  -1   7 o  3896.745   4110.197   180.00   1.32541   1.48 
   6  -4   0 o  28.640     28.674      0.00    1.34000   0.01 
   3  -3  -6 o   8.743      8.732      0.00    1.33982   0.00 
   5  -5  -2 o  6938.632   6901.573    0.00    1.33954   2.69 
   5  -3   4 o  960.119    948.342    180.00   1.33916   0.37 
   6  -3  -3 o  1299.578   1267.108   180.00   1.33874   0.50 
   2  -4   7 o  3269.410   3130.357    0.00    1.30661   1.21 
   1   7  -2 o  305.413    291.062     0.00    1.30647   0.11 
   3   4  -7 o  2810.023   2697.037   180.00   1.30607   1.04 
   3   5  -6 o  1100.442   1055.712    0.00    1.30609   0.41 
   4   4  -6 o  175.250    168.258     0.00    1.30564   0.06 
   1   7  -3 o  2671.497   2570.272    0.00    1.30570   0.98 
   1   1  -8 o  1026.920   1078.308   180.00   1.32149   0.39 
   6  -4  -1 o  2416.585   2317.295    0.00    1.33557   0.93 
   3  -5  -4 o  1010.353   980.296    180.00   1.33378   0.39 
   1  -5   7 o   1.556      1.559     180.00   1.30217   0.00 
   6  -2  -4 o  7114.343   7032.523    0.00    1.33240   2.73 
   5   2  -6 o   4.954      5.097     180.00   1.31696   0.00 
   0   3  -8 o  284.080    288.737    180.00   1.30026   0.10 
   0   4   5 o  832.316    827.535     0.00    1.33133   0.32 
   2   1  -8 o  675.681    674.529    180.00   1.31486   0.25 
   2  -7   4 o  83.335     85.368     180.00   1.29888   0.03 
   3   5   1 o  976.690    988.230    180.00   1.32828   0.37 
   5  -1   4 o  981.630    1001.182    0.00    1.32791   0.37 
   6  -2   2 o  6493.784   6528.841    0.00    1.34059   2.52 
   5  -5   3 o  238.326    230.551     0.00    1.31238   0.09 
   5  -1  -6 o  2470.644   2573.273   180.00   1.32675   0.94 
   3  -6   5 o  657.778    687.342     0.00    1.29579   0.24 
   2   3  -8 o  358.396    373.792     0.00    1.29336   0.13 
   6  -3   2 o  741.256    788.145     0.00    1.32389   0.28 
   4   4   1 o  1832.879   1729.396    0.00    1.33644   0.71 
   4   5  -2 o  10.991     11.626      0.00    1.32303   0.00 
   4   0   5 o  40.934     43.229     180.00   1.32198   0.02 
   2  -6   6 o  792.384    811.584    180.00   1.27431   0.28 
   6   2  -3 o  1791.351   1892.844   180.00   1.32115   0.68 
   6  -4   1 o  13.148     13.852      0.00    1.32109   0.00 
   4   5  -4 o  3085.610   2937.572    0.00    1.30604   1.14 
   3   0   6 o  69.207     72.939     180.00   1.32046   0.03 
   3  -7   3 o  256.659    255.721    180.00   1.28857   0.09 
   0   3   6 o   0.000      0.000     180.00   1.31755   0.00 
   5  -4   4 o   5.182      5.157      0.00    1.30297   0.00 
   0   7  -5 o  1987.043   1945.379    0.00    1.27009   0.69 
   3  -5   6 o  414.645    403.278    180.00   1.28668   0.15 
   1  -7   5 o  156.999    153.044    180.00   1.26966   0.05 
   3   6  -3 o  42.346     42.720     180.00   1.30176   0.02 
   0   7   0 o  656.619    665.073     0.00    1.30123   0.24 
   6  -1   2 o  389.170    389.565    180.00   1.32873   0.15 
   4  -5   5 o  122.450    117.931    180.00   1.28488   0.04 
   5   2   2 o  120.356    122.053    180.00   1.32808   0.05 
   6   2  -2 o  1280.010   1301.362   180.00   1.32801   0.49 
   4   3  -7 o  5239.215   5035.942    0.00    1.28442   1.87 
   3   6  -4 o  511.413    491.878    180.00   1.28413   0.18 
   2  -6  -3 o  2571.697   2622.067    0.00    1.29998   0.94 
   2   5  -7 o  1540.982   1496.757   180.00   1.28366   0.55 
   1   7  -4 o  1106.351   1073.734   180.00   1.28352   0.39 
   2  -2  -7 o  3686.221   3578.664   180.00   1.31323   1.37 
   3   6  -2 o  81.358     84.284     180.00   1.29798   0.03 
   4  -6  -2 o  170.473    176.593    180.00   1.29797   0.06 
   4  -1  -7 o  743.852    775.205     0.00    1.29750   0.27 
   5  -4  -4 o  51.190     49.018      0.00    1.31192   0.02 
   0   1  -8 o   0.531      0.555      0.00    1.29689   0.00 
   5  -3  -5 o  79.682     76.123      0.00    1.31133   0.03 
   2   6  -6 o  610.198    593.023    180.00   1.26350   0.21 
   5   1   3 o  1024.099   1082.938   180.00   1.32248   0.39 
   0   5   4 o  15.311     14.489      0.00    1.30883   0.01 
   6  -4  -2 o  384.922    363.393     0.00    1.30847   0.14 
   3  -7   0 o  27.537     28.881     180.00   1.29384   0.01 
   4  -6   4 o  1251.717   1281.995    0.00    1.27781   0.44 
   1  -2  -7 o  1899.432   1787.649    0.00    1.30661   0.70 
   3   2  -8 o   9.099      9.439      0.00    1.27497   0.00 
   5   4  -3 o  825.445    810.936    180.00   1.30380   0.30 
   5   4  -2 o  1626.856   1640.714   180.00   1.30230   0.60 
   2   3   5 o   2.139      2.160      0.00    1.30231   0.00 
   3   3   4 o  970.750    965.220     0.00    1.31472   0.36 
   6   0  -5 o  1326.242   1347.936   180.00   1.30125   0.49 
   1   0  -8 o  320.050    306.843    180.00   1.28596   0.11 
   2   0  -8 o  411.112    394.022    180.00   1.28578   0.15 
   1   7  -1 o  1154.943   1106.914   180.00   1.28571   0.41 
   2   4   4 o  1503.124   1533.940   180.00   1.29949   0.55 
   6   2  -1 o  518.048    491.577    180.00   1.31208   0.19 
   4  -4  -5 o  1453.258   1488.585   180.00   1.29909   0.53 
   1   4  -8 o  132.404    127.981    180.00   1.26895   0.05 
   4   5  -1 o  37.173     38.501     180.00   1.29809   0.01 
   5   4  -4 o  114.198    109.027     0.00    1.28388   0.04 
   1   1   7 o  1429.523   1516.573   180.00   1.29602   0.52 
   4   5  -5 o  147.987    141.304     0.00    1.26656   0.05 
   5  -6   1 o  2356.220   2382.391    0.00    1.28006   0.83 
   2  -7  -1 o  178.624    181.101    180.00   1.27989   0.06 
   0   4  -8 o  310.126    301.366     0.00    1.26380   0.11 
   6   2  -4 o  1224.585   1282.332    0.00    1.29252   0.44 
   3   1  -8 o  300.509    307.627    180.00   1.27836   0.11 
   3  -6  -3 o  37.502     38.483      0.00    1.27849   0.01 
   5  -6   0 o  598.397    613.057    180.00   1.27844   0.21 
   1  -6  -3 o  3392.010   3541.323   180.00   1.29166   1.22 
   6  -1  -5 o  15.631     16.314      0.00    1.29096   0.01 
   1  -7  -1 o  316.717    327.961     0.00    1.27685   0.11 
   3  -2  -7 o  1052.435   1062.462   180.00   1.28919   0.38 
   1  -3   8 o  3504.315   3344.569    0.00    1.25999   1.20 
   1   7  -5 o  888.651    858.235    180.00   1.24302   0.30 
   6   1   1 o  727.987    741.727    180.00   1.29994   0.27 
   3   6  -1 o  134.006    137.491    180.00   1.27333   0.05 
   2  -7   5 o  707.198    684.311     0.00    1.24181   0.24 
   3   2   5 o  2488.556   2576.273   180.00   1.29813   0.91 
   6   1  -5 o  2359.965   2238.802    0.00    1.28539   0.84 
   5   3   1 o  489.506    508.405    180.00   1.29796   0.18 
   1   6   2 o  655.066    621.029    180.00   1.28464   0.23 
   4  -3  -6 o   9.330      8.870      0.00    1.28441   0.00 
   3   4   3 o  1095.840   1172.201    0.00    1.29632   0.40 
   6  -4   2 o  1857.908   1831.987   180.00   1.28164   0.66 
   4  -5  -4 o  2416.831   2456.242    0.00    1.28001   0.86 
   5   4  -1 o  7058.176   7258.310   180.00   1.27959   2.50 
   2  -5   7 o  34.064     32.540      0.00    1.25053   0.01 
   1  -2   8 o  2178.419   2114.726    0.00    1.26492   0.75 
   2   0   7 o  377.779    388.097     0.00    1.27832   0.13 
   0   6  -7 o  2323.653   2211.881    0.00    1.23392   0.77 
   5  -5  -3 o  692.023    710.798     0.00    1.27837   0.24 
   6   0   2 o  72.989     76.715     180.00   1.29047   0.03 
   5  -2  -6 o  1568.711   1631.478    0.00    1.27672   0.55 
   4  -7   1 o  267.967    252.284     0.00    1.24795   0.09 
   3   3  -8 o  280.131    264.235    180.00   1.24753   0.09 
   5   3  -6 o  2233.749   2161.001    0.00    1.26228   0.77 
   3   6  -5 o  1560.583   1470.936   180.00   1.24756   0.53 
   2   6   1 o  122.563    129.251    180.00   1.27590   0.04 
   6  -3  -4 o  954.348    1011.227    0.00    1.27544   0.34 
   2   4  -8 o  220.593    209.235     0.00    1.24644   0.07 
   3  -7   4 o  80.307     76.120      0.00    1.24668   0.03 
   5  -6   2 o  228.471    218.879     0.00    1.26139   0.08 
   4   3   3 o  1523.723   1433.563   180.00   1.28610   0.54 
   4  -2   6 o  20.455     19.364      0.00    1.25965   0.01 
   4   2   4 o  97.611     91.716      0.00    1.28513   0.03 
   4  -3   6 o  3950.564   3761.700    0.00    1.25917   1.35 
   2   2   6 o  198.069    197.468    180.00   1.27156   0.07 
   6  -5   0 o  1350.470   1297.587    0.00    1.25819   0.46 
   0   0   8 o  31.252     30.224     180.00   1.25763   0.01 
   3   0  -8 o  592.216    574.989     0.00    1.25713   0.20 
   0   2   7 o  4035.123   3968.732   180.00   1.27067   1.41 
   5   0   4 o  3206.213   3090.960    0.00    1.28246   1.14 
   5  -6  -1 o  1423.012   1385.739   180.00   1.25673   0.49 
   4  -7   2 o  5061.170   4895.579   180.00   1.24139   1.69 
   3  -7  -1 o  1972.483   1925.059    0.00    1.25467   0.67 
   1   6  -7 o  178.023    178.394    180.00   1.22341   0.06 
   2   7  -3 o  2012.515   2001.399   180.00   1.23852   0.67 
   6  -2   3 o  4896.743   4736.680    0.00    1.26548   1.70 
   2   5   3 o  67.648     66.830      0.00    1.26374   0.02 
   6   2   0 o  1348.475   1454.598   180.00   1.27569   0.47 
   1   4   5 o  2008.159   1980.990   180.00   1.26350   0.69 
   4  -7   0 o  769.005    745.417     0.00    1.23556   0.25 
   6  -4  -3 o  2550.864   2484.208   180.00   1.26259   0.88 
   1  -6   7 o  54.665     54.721      0.00    1.21881   0.02 
   2   7  -2 o  979.760    927.583    180.00   1.23428   0.32 
   6  -5   1 o  209.579    196.343     0.00    1.24850   0.07 
   6  -5  -1 o  141.519    132.360    180.00   1.24842   0.05 
   1  -4   8 o  1732.574   1633.214   180.00   1.23194   0.57 
   1   7   0 o  347.887    327.910    180.00   1.24634   0.12 
   1  -1   8 o  1772.225   1679.426   180.00   1.24592   0.60 
   0   7   1 o  4889.733   4617.396    0.00    1.24611   1.64 
   5  -5   4 o  4593.467   4369.934    0.00    1.24559   1.54 
   5   4  -5 o  1530.833   1459.169    0.00    1.24531   0.51 
   3  -3   7 o  348.133    332.031     0.00    1.24533   0.12 
   3  -2   7 o  1511.432   1442.543    0.00    1.24522   0.51 
   5   1  -7 o   0.092      0.089      0.00    1.24421   0.00 
   6  -3   3 o  973.874    944.166    180.00   1.25754   0.33 
   6  -2  -5 o  69.960     68.473      0.00    1.25632   0.02 
   0   6   3 o   0.426      0.417     180.00   1.25515   0.00 
   4   5   0 o  1715.206   1680.112   180.00   1.25454   0.58 
   5   0  -7 o  17.245     16.647      0.00    1.24095   0.01 
   3  -6   6 o  973.501    971.731     0.00    1.21050   0.31 
   4  -2  -7 o  401.262    398.743     0.00    1.23919   0.13 
   1   3   6 o  1299.071   1261.042    0.00    1.25214   0.44 
   5  -6   3 o   8.398      8.216     180.00   1.22494   0.00 
   2   7  -4 o  246.088    244.538     0.00    1.22426   0.08 
   0   5  -8 o  152.804    150.990     0.00    1.20839   0.05 
   3   5  -7 o  177.378    178.372     0.00    1.22350   0.06 
   0   7  -6 o  100.441    99.256     180.00   1.20820   0.03 
   1   5  -8 o  4314.767   4258.843   180.00   1.20792   1.36 
   3   1   6 o  1269.795   1201.409    0.00    1.25026   0.43 
   3  -4   7 o  929.199    943.771    180.00   1.22279   0.30 
   5  -3   5 o  105.739    105.525    180.00   1.23679   0.03 
   4   4  -7 o  1775.576   1809.671    0.00    1.22218   0.57 
   7  -2  -2 o  248.767    232.681     0.00    1.24948   0.08 
   4  -4   6 o  479.918    463.077     0.00    1.23532   0.16 
   2  -1  -8 o   0.418      0.402      0.00    1.23518   0.00 
   3   5   2 o  397.590    369.860    180.00   1.24704   0.13 
   7  -1  -2 o  22.178     21.071      0.00    1.25863   0.01 
   7  -1  -1 o  10.704     10.261      0.00    1.25826   0.00 
   6   2  -5 o  1007.255   948.795     0.00    1.24611   0.34 
   1  -7   6 o  110.801    113.990     0.00    1.20330   0.03 
   4  -6  -3 o  11.497     10.775      0.00    1.23131   0.00 
   2  -4  -6 o  1414.007   1369.953    0.00    1.24405   0.47 
   1   5   4 o  32.736     31.872      0.00    1.24379   0.01 
   4  -7   3 o  1691.841   1676.564   180.00   1.21673   0.54 
   7  -2  -1 o  549.156    539.344     0.00    1.25522   0.19 
   1  -1  -8 o  945.085    891.619     0.00    1.23008   0.31 
   4   4   2 o  373.927    367.111     0.00    1.25481   0.13 
   6   3  -3 o  68.686     65.895     180.00   1.24204   0.02 
   6   3  -2 o   4.507      4.303     180.00   1.24174   0.00 
   1  -8   3 o  1048.277   1095.015    0.00    1.19909   0.33 
   4   1   5 o  1719.047   1670.984    0.00    1.25214   0.58 
   7  -1  -3 o  2238.996   2203.399    0.00    1.23974   0.74 
   6  -4   3 o  319.639    298.422    180.00   1.22687   0.10 
   4   5  -6 o  1637.956   1630.280   180.00   1.21246   0.52 
   2  -5  -5 o  37.112     36.993     180.00   1.23913   0.01 
   5   4   0 o  33.977     34.438     180.00   1.23881   0.01 
   5  -2   5 o  2421.459   2453.309   180.00   1.23782   0.80 
   4   2  -8 o  44.123     44.253     180.00   1.21089   0.01 
   6  -1   3 o  627.917    586.074    180.00   1.24938   0.21 
   5   2  -7 o   1.749      1.721     180.00   1.22473   0.00 
   4  -1   6 o   2.842      2.845      0.00    1.23669   0.00 
   3  -1   7 o  20.777     21.452      0.00    1.22248   0.01 
   4  -6   5 o  1290.306   1272.050   180.00   1.20847   0.41 
   2   7  -5 o  2873.276   2872.546    0.00    1.19334   0.89 
   6  -5   2 o  124.284    126.116     0.00    1.22067   0.04 
   6  -5  -2 o  158.710    160.978    180.00   1.22052   0.05 
   3  -7   5 o  70.187     68.976      0.00    1.19156   0.02 
   1  -4  -6 o  96.289     89.260     180.00   1.23271   0.03 
   7   0  -2 o  2006.679   1957.017   180.00   1.24411   0.67 
   4   1  -8 o  10.362     10.409      0.00    1.21885   0.00 
   7   0  -3 o  162.236    150.865    180.00   1.23162   0.05 
   2  -7  -2 o  122.035    122.641    180.00   1.21872   0.04 
   3   6   0 o  3427.260   3208.707    0.00    1.23118   1.12 
   2   6  -7 o  406.298    394.798     0.00    1.18916   0.12 
   1   7  -6 o  63.463     61.722      0.00    1.18915   0.02 
   5  -6  -2 o  341.791    342.409    180.00   1.21785   0.11 
   7  -2   0 o  36.679     35.018      0.00    1.24169   0.01 
   2  -8   3 o  941.661    914.344    180.00   1.18874   0.29 
   1  -8   2 o  3192.535   3298.448   180.00   1.20327   1.00 
   3  -4  -6 o  3414.124   3220.282   180.00   1.22915   1.12 
   7  -3  -1 o  2020.873   1908.694   180.00   1.22919   0.66 
   6   1  -6 o  250.258    243.926     0.00    1.21569   0.08 
   5  -1  -7 o  874.479    851.318    180.00   1.21548   0.28 
   1  -5  -5 o  4559.152   4219.795   180.00   1.22751   1.49 
   3  -1  -8 o  2605.357   2534.174    0.00    1.21472   0.83 
   7  -1   0 o  316.163    321.843    180.00   1.23868   0.10 
   3   4  -8 o  442.161    463.487    180.00   1.20038   0.14 
   0   8  -3 o  105.704    105.677     0.00    1.18591   0.03 
   7   0  -1 o  205.394    212.716    180.00   1.23781   0.07 
   5  -4   5 o  2963.130   2911.141    0.00    1.21363   0.94 
   1  -5   8 o  575.251    581.187     0.00    1.18511   0.18 
   7  -2  -3 o  144.171    138.947     0.00    1.22523   0.05 
   2  -3   8 o  2090.274   2186.376   180.00   1.19864   0.65 
   3  -5  -5 o   0.257      0.253     180.00   1.22480   0.00 
   2   5  -8 o  15.817     16.210     180.00   1.18377   0.00 
   2   7  -1 o  896.898    897.792     0.00    1.21210   0.29 
   5   2   3 o  900.938    887.709     0.00    1.23592   0.30 
   6   3  -4 o   9.977     10.206      0.00    1.22382   0.00 
   1  -7  -2 o  941.035    947.254     0.00    1.21146   0.30 
   6   0  -6 o  4815.507   4965.161   180.00   1.22334   1.56 
   2  -8   2 o   0.045      0.047      0.00    1.19722   0.00 
   3   6  -6 o  80.365     83.389     180.00   1.19665   0.02 
   5  -4  -5 o  575.183    596.993    180.00   1.22268   0.19 
   7  -3   0 o  147.313    153.438     0.00    1.22211   0.05 
   2  -6   7 o  702.678    717.165    180.00   1.18075   0.21 
   6   1   2 o  701.404    646.049    180.00   1.23215   0.23 
   2  -3  -7 o  180.565    181.994     0.00    1.21950   0.06 
   5  -5  -4 o  82.820     80.347      0.00    1.20712   0.03 
   5   4  -6 o  422.829    419.647     0.00    1.19289   0.13 
   1  -8   4 o  479.784    483.207     0.00    1.17845   0.14 
   1   0   8 o  601.893    596.284     0.00    1.20603   0.19 
   7  -3  -2 o  86.838     87.422     180.00   1.21814   0.03 
   4  -7  -1 o  506.861    504.961    180.00   1.20582   0.16 
   2  -6  -4 o  13.630     13.571      0.00    1.20574   0.00 
   4   0  -8 o  679.222    683.329     0.00    1.20529   0.21 
   4  -5   6 o  351.132    344.913    180.00   1.19182   0.11 
   3  -3  -7 o  272.057    275.125     0.00    1.20506   0.09 
   5  -1   5 o  205.290    202.923    180.00   1.21655   0.07 
   1  -8   1 o  1287.866   1250.026   180.00   1.19046   0.40 
   2  -7   6 o  2073.977   2000.771    0.00    1.17529   0.62 
   2  -8   1 o  172.965    167.107    180.00   1.18893   0.05 
   2   1   7 o  376.126    366.903     0.00    1.21377   0.12 
   3  -7  -2 o   6.520      6.891      0.00    1.20135   0.00 
   0   1   8 o  1751.532   1853.908    0.00    1.20033   0.55 
   5   3   2 o  3450.274   3612.928   180.00   1.22376   1.12 
   6   2   1 o  1620.415   1707.163    0.00    1.22366   0.53 
   1   2   7 o  315.866    317.409     0.00    1.21209   0.10 
   6   3  -1 o  1773.584   1882.552    0.00    1.22296   0.57 
   5   3  -7 o  325.260    327.573    180.00   1.18553   0.10 
   0   8  -2 o  795.621    799.375     0.00    1.18561   0.24 
   7  -2   1 o  224.283    228.371     0.00    1.21066   0.07 
   2  -2   8 o  281.431    294.579     0.00    1.19802   0.09 
   5  -3  -6 o  2126.085   2134.157    0.00    1.21003   0.67 
   0   8  -4 o  2314.619   2272.008    0.00    1.17005   0.69 
   6  -1  -6 o  42.266     41.810      0.00    1.20925   0.01 
   1  -3  -7 o   9.153      9.044      0.00    1.20920   0.00 
   1   2  -9 o  354.842    366.851     0.00    1.18264   0.11 
   4   3  -8 o  2526.314   2614.444    0.00    1.18264   0.77 
   5   1   4 o  1427.334   1439.145   180.00   1.21895   0.46 
   4   6  -4 o  1103.076   1137.737   180.00   1.18144   0.33 
   1  -6  -4 o  629.827    641.699     0.00    1.19465   0.19 
   3  -5   7 o  191.179    195.808    180.00   1.18106   0.06 
   1   7   1 o  989.175    985.645    180.00   1.19322   0.31 
   3  -6  -4 o  388.883    385.517     0.00    1.19290   0.12 
   2  -4   8 o  150.935    153.003    180.00   1.17900   0.05 
   7  -1  -4 o  41.645     43.022      0.00    1.20405   0.01 
   2  -8   4 o  574.893    571.620    180.00   1.16451   0.17 
   6  -4  -4 o  2829.943   2935.548   180.00   1.20362   0.89 
   2   2  -9 o  1239.806   1238.127    0.00    1.17752   0.37 
   4   6  -3 o  437.729    423.805    180.00   1.19074   0.13 
   6  -3  -5 o  92.718     97.300      0.00    1.20278   0.03 
   4  -4  -6 o  68.888     66.522     180.00   1.19066   0.02 
   7   0   0 o  916.829    893.120     0.00    1.21356   0.29 
   2   6   2 o   4.557      4.809     180.00   1.20249   0.00 
   7   1  -3 o  767.744    816.639     0.00    1.20216   0.24 
   4  -7   4 o  999.533    989.414    180.00   1.17704   0.30 
   5   5  -3 o  16.264     15.587      0.00    1.18999   0.00 
   7   0  -4 o  2389.392   2542.384   180.00   1.20197   0.75 
   6   3  -5 o  35.794     34.156     180.00   1.18940   0.01 
   6   0   3 o  905.502    918.451    180.00   1.21184   0.29 
   5  -6   4 o  569.437    543.266    180.00   1.17511   0.17 
   1   3  -9 o   3.470      3.305      0.00    1.17452   0.00 
   6   2  -6 o  1176.314   1139.707   180.00   1.18747   0.36 
   4  -5  -5 o  354.909    345.836     0.00    1.18708   0.11 
   4   5   1 o  110.581    116.838     0.00    1.19776   0.03 
   7  -3   1 o  34.247     36.106      0.00    1.19780   0.01 
   7   1  -2 o  798.827    765.435    180.00   1.20824   0.25 
   0   4   6 o  729.450    769.606     0.00    1.19716   0.23 
   1   6   3 o  264.705    279.186    180.00   1.19708   0.08 
   5  -5   5 o  945.307    913.774     0.00    1.17183   0.28 
   1   1  -9 o  393.432    383.503    180.00   1.17107   0.12 
   2   1  -9 o  172.530    168.968     0.00    1.17058   0.05 
   4   6  -2 o  345.369    361.639    180.00   1.18353   0.10 
   3  -8   3 o  284.342    285.240     0.00    1.15659   0.08 
   4   0   6 o  1349.354   1357.666   180.00   1.19389   0.42 
   0   8  -1 o  16.216     16.014      0.00    1.16920   0.00 
   3   3   5 o  978.357    983.408     0.00    1.19384   0.30 
   3  -8   2 o  17.177     16.943      0.00    1.16851   0.01 
   5  -7   1 o  20.054     19.796     180.00   1.16827   0.01 
   0   7   2 o  972.723    1000.676    0.00    1.18083   0.29 
   0   5   5 o  3640.678   3552.776    0.00    1.19203   1.12 
   5   5  -4 o  329.276    337.550     0.00    1.17986   0.10 
   7  -1   1 o  356.627    378.383    180.00   1.20243   0.11 
   3   4   4 o  54.246     52.416     180.00   1.19129   0.02 
   7  -3  -3 o  444.858    427.203    180.00   1.19036   0.14 
   0   2  -9 o  283.138    278.556    180.00   1.16526   0.08 
   2   3  -9 o  1048.941   1035.699   180.00   1.16505   0.31 
   6  -5   3 o  1162.479   1175.793    0.00    1.17812   0.35 
   6  -5  -3 o  11.260     11.406      0.00    1.17791   0.00 
   2  -8   0 o  154.218    152.114    180.00   1.16488   0.05 
   3  -8   1 o  2328.955   2300.958   180.00   1.16487   0.69 
   2  -1   8 o  224.251    223.591    180.00   1.17724   0.07 
   2   7  -6 o  710.430    649.667     0.00    1.14934   0.20 
   1  -8   0 o  99.621     102.962     0.00    1.16223   0.03 
   0   3  -9 o  456.979    469.843     0.00    1.16187   0.13 
   7   1  -1 o  1573.945   1673.619   180.00   1.19710   0.49 
   5  -7   0 o  139.423    144.330    180.00   1.16212   0.04 
   2   7   0 o  179.092    167.332     0.00    1.17472   0.05 
   1   4  -9 o  377.599    348.007     0.00    1.14790   0.11 
   7  -2  -4 o  11.498     11.611     180.00   1.18553   0.00 
   6  -2   4 o  648.594    665.125     0.00    1.18494   0.20 
   4  -1  -8 o  770.854    739.672    180.00   1.17226   0.23 
   7  -4  -1 o  1297.486   1351.870   180.00   1.18418   0.39 
   5   5  -2 o  1741.628   1832.034    0.00    1.18366   0.53 
   6  -3   4 o  1199.554   1257.287   180.00   1.18354   0.36 
   5  -2  -7 o  25.458     24.651     180.00   1.17164   0.01 
   5  -7   2 o  174.407    175.730     0.00    1.15883   0.05 
   3   7  -3 o  659.247    662.666     0.00    1.15857   0.19 
   7  -4   0 o  1143.096   1203.054    0.00    1.18296   0.35 
   2  -2  -8 o  2008.710   1976.189   180.00   1.17031   0.60 
   1  -8   5 o  862.495    807.573     0.00    1.14376   0.24 
   2   4   5 o  66.200     68.708      0.00    1.18154   0.02 
   6  -6   0 o  103.037    101.588    180.00   1.16995   0.03 
   4   6  -5 o  50.134     50.644      0.00    1.15676   0.01 
   3   0   7 o  87.739     90.188     180.00   1.18059   0.03 
   4  -3  -7 o  1361.920   1348.802    0.00    1.16837   0.40 
   2  -5   8 o  827.370    787.884    180.00   1.14191   0.23 
   7   1  -4 o  372.251    383.069     0.00    1.17961   0.11 
   0   6  -8 o  2516.758   2424.035    0.00    1.14134   0.71 
   6  -6   1 o  5319.549   5220.217   180.00   1.16706   1.57 
   1   8  -4 o  14.223     13.859     180.00   1.14069   0.00 
   0   4  -9 o  92.668     91.090     180.00   1.14022   0.03 
   5  -6  -3 o   6.567      6.407     180.00   1.16637   0.00 
   3   5  -8 o  442.013    436.936     0.00    1.13991   0.12 
   6   3   0 o  15.757     14.909     180.00   1.18809   0.00 
   0   8  -5 o  89.454     88.359     180.00   1.13989   0.03 
   0   7  -7 o  253.314    250.899    180.00   1.13964   0.07 
   3   6   1 o  156.193    153.326     0.00    1.17652   0.05 
   5   0   5 o  152.775    148.311    180.00   1.17623   0.05 
   0   3   7 o  390.769    375.596    180.00   1.17595   0.12 
   6  -2  -6 o  130.081    123.430    180.00   1.17555   0.04 
   1   8  -3 o  34.562     31.078      0.00    1.15139   0.01 
   3   2  -9 o  13.046     11.759      0.00    1.15075   0.00 
   3   7  -4 o  43.512     39.125      0.00    1.15080   0.01 
   5   4   1 o  324.141    334.365     0.00    1.18491   0.10 
   1   6  -8 o  22.879     23.202     180.00   1.13679   0.01 
   3   6  -7 o  41.942     42.567      0.00    1.13672   0.01 
   6  -4   4 o  23.771     24.543     180.00   1.16272   0.01 
   0   1  -9 o  673.921    610.532     0.00    1.14989   0.19 
   4   3   4 o  34.950     36.792     180.00   1.18421   0.01 
   4  -7  -2 o  762.448    790.863    180.00   1.16230   0.22 
   4   5  -7 o  1307.898   1191.572   180.00   1.14944   0.37 
   1  -2  -8 o  315.497    331.344     0.00    1.16154   0.09 
   2   3   6 o   0.108      0.103     180.00   1.17259   0.00 
   3   1  -9 o  527.988    482.675    180.00   1.14851   0.15 
   2   4  -9 o  3747.335   3864.947   180.00   1.13492   1.05 
   4   6  -1 o  205.867    215.740    180.00   1.16068   0.06 
   1   8  -2 o  160.042    147.805     0.00    1.14720   0.05 
   3   2   6 o  1063.520   1048.642   180.00   1.17037   0.32 
   3  -8   0 o  2986.762   2780.166   180.00   1.14609   0.85 
   4  -6  -4 o   0.066      0.066      0.00    1.15831   0.00 
   7  -4  -2 o  36.964     36.704      0.00    1.16928   0.01 
   1  -7   7 o  280.121    300.653     0.00    1.13176   0.08 
   3  -2  -8 o  223.336    225.569    180.00   1.15719   0.06 
   6  -6  -1 o   9.004      9.086     180.00   1.15724   0.00 
   3  -8   4 o  951.555    1023.071    0.00    1.13048   0.26 
   6  -1   4 o   0.008      0.008      0.00    1.16672   0.00 
   5   5  -5 o  45.977     44.883      0.00    1.15447   0.01 
   7  -2   2 o  724.439    698.861    180.00   1.16587   0.21 
   7  -4   1 o  551.156    534.870     0.00    1.16576   0.16 
   3  -7   6 o  140.435    145.025    180.00   1.12868   0.04 
   2   5   4 o  412.528    399.565     0.00    1.16503   0.12 
   1   7  -7 o  479.103    481.214    180.00   1.12731   0.13 
   7   0   1 o  25.578     23.104      0.00    1.17434   0.01 
   2  -8   5 o  260.687    261.633    180.00   1.12728   0.07 
   4  -7   5 o  767.138    762.735    180.00   1.12660   0.21 
   3   5   3 o  1299.575   1339.815    0.00    1.16322   0.38 
   3  -6   7 o  397.570    395.875     0.00    1.12573   0.11 
   1  -6   8 o  398.193    397.472     0.00    1.12564   0.11 
   3   7  -2 o  558.727    496.475     0.00    1.15113   0.16 
   1   1   8 o   0.865      0.767     180.00   1.15092   0.00 
   4   2   5 o  969.222    925.330     0.00    1.17239   0.29 
   0   8   0 o  4150.524   4194.069   180.00   1.13858   1.17 
   4   4  -8 o  318.589    321.740    180.00   1.13807   0.09 
   5   5  -1 o  777.781    828.326     0.00    1.16163   0.23 
   0   6   4 o  443.556    469.407    180.00   1.16152   0.13 
   2  -7  -3 o  67.381     60.607      0.00    1.15023   0.02 
   4   4   3 o  3974.625   3925.203   180.00   1.17035   1.18 
   6  -6   2 o  780.545    711.136    180.00   1.14891   0.22 
   7   1   0 o  1809.825   1795.396    0.00    1.17010   0.54 
   7  -3   2 o  1805.652   1818.755   180.00   1.15919   0.53 
   7   0  -5 o  226.817    226.771    180.00   1.15868   0.07 
   3   3  -9 o  2668.334   2749.304    0.00    1.13497   0.75 
   5   2  -8 o  128.745    132.947     0.00    1.13479   0.04 
   5  -7   3 o  18.143     18.713     180.00   1.13490   0.01 
   4  -6   6 o  2068.188   2144.323   180.00   1.13460   0.58 
   6   4  -4 o  63.306     58.909      0.00    1.14643   0.02 
   4  -3   7 o  314.679    292.816    180.00   1.14618   0.09 
   5   1  -8 o  122.446    114.016     0.00    1.14553   0.03 
   6   4  -3 o  1212.609   1249.743    0.00    1.15652   0.35 
   2   0  -9 o  156.728    145.785     0.00    1.14522   0.04 
   7   2  -2 o  1161.992   1224.704    0.00    1.15621   0.34 
   4  -4   7 o  88.236     95.636     180.00   1.13260   0.02 
   7  -1  -5 o  1907.431   1987.803   180.00   1.15572   0.55 
   7   2  -3 o  1263.601   1335.641    0.00    1.15565   0.37 
   5   4  -7 o  913.271    1002.430   180.00   1.13197   0.25 
   6   0  -7 o  105.717    97.627     180.00   1.14290   0.03 
   6   3  -6 o  11.903     11.033      0.00    1.14270   0.00 
   4  -2   7 o  294.440    277.408    180.00   1.14189   0.08 
   1   0  -9 o  3840.304   3664.378   180.00   1.14148   1.09 
   6   1  -7 o  979.543    939.298     0.00    1.14124   0.28 
   1  -3   9 o   4.483      4.702     180.00   1.12913   0.00 
   1   8  -5 o  59.135     55.967      0.00    1.11627   0.02 
   5  -7  -1 o   7.045      6.792      0.00    1.14110   0.00 
   3   7  -5 o  285.916    295.773    180.00   1.12870   0.08 
   6   2   2 o  2263.139   2450.983    0.00    1.16171   0.66 
   1   8  -1 o  25.988     26.753     180.00   1.12857   0.01 
   6   4  -2 o  18.209     15.711     180.00   1.15150   0.01 
   1  -2   9 o  393.277    399.458     0.00    1.12818   0.11 
   1  -7  -3 o  25.797     25.519     180.00   1.14026   0.01 
   5  -3   6 o   5.372      5.352      0.00    1.13988   0.00 
   2  -8  -1 o  78.612     78.603     180.00   1.12778   0.02 
   2   0   8 o  335.488    338.367    180.00   1.13924   0.09 
   3  -7  -3 o  1319.522   1326.702   180.00   1.13939   0.37 
   5   0  -8 o  2326.189   2356.813   180.00   1.13837   0.65 
   1  -4   9 o  1221.585   1259.519   180.00   1.11308   0.33 
   7  -3  -4 o  1320.225   1196.146   180.00   1.14911   0.38 
   2   6  -8 o  69.063     71.839      0.00    1.11270   0.02 
   6   1   3 o  301.063    298.063    180.00   1.15830   0.09 
   6  -4  -5 o   4.906      4.989     180.00   1.13739   0.00 
   3  -3   8 o  70.660     70.237      0.00    1.12519   0.02 
   5  -2   6 o  206.320    209.133    180.00   1.13610   0.06 
   5  -4  -6 o  118.289    121.870    180.00   1.13476   0.03 
   4  -8   1 o  18.154     18.670      0.00    1.12210   0.00 
   1  -8  -1 o   0.201      0.208     180.00   1.12171   0.00 
   4  -8   2 o  1511.927   1551.190   180.00   1.12169   0.41 
   7  -1   2 o  406.038    375.018    180.00   1.15371   0.12 
   7   1  -5 o  303.822    277.864     0.00    1.14323   0.09 
   0   2   8 o  441.662    490.338    180.00   1.13230   0.12 
   1   4   6 o  299.042    272.756     0.00    1.14324   0.08 
   4  -8   3 o  319.505    331.565     0.00    1.10760   0.09 
   5  -5  -5 o  506.142    565.269    180.00   1.13198   0.14 
   2  -5  -6 o  265.007    298.012    180.00   1.13178   0.07 
   1   7   2 o  35.485     39.860     180.00   1.13177   0.01 
   4   6  -6 o  10.655     10.691      0.00    1.11945   0.00 
   1   5  -9 o  256.117    257.950    180.00   1.10631   0.07 
   6  -6  -2 o  89.335     99.074     180.00   1.13038   0.02 
   7  -5   0 o   8.141      8.818      0.00    1.12956   0.00 
   7   2  -4 o  326.590    325.831     0.00    1.14015   0.09 
   2  -7   7 o  31.226     30.201      0.00    1.10485   0.01 
   3   7  -1 o  406.761    435.216    180.00   1.12933   0.11 
   6  -6   3 o  419.386    396.997     0.00    1.11754   0.11 
   7  -4  -3 o  2924.896   2921.193    0.00    1.14001   0.82 
   2   2   7 o  12.776     12.839     180.00   1.13983   0.00 
   3   0  -9 o  78.971     81.180     180.00   1.12854   0.02 
   5  -6   5 o  41.124     38.618     180.00   1.11689   0.01 
   5   5  -6 o  11.877     10.980      0.00    1.11664   0.00 
   3   4  -9 o  393.334    364.838     0.00    1.10327   0.10 
   0   5  -9 o   0.124      0.116     180.00   1.10319   0.00 
   1   5   5 o  1974.738   2014.989   180.00   1.13844   0.56 
   6  -1  -7 o  66.366     64.535      0.00    1.12690   0.02 
   6  -3  -6 o  122.728    118.928    180.00   1.12686   0.03 
   4   1   6 o  457.442    465.269    180.00   1.13709   0.13 
   2   7   1 o  289.124    280.674     0.00    1.12622   0.08 
   5  -4   6 o  12.387     12.178     180.00   1.12608   0.00 
   7  -5  -1 o  130.488    126.958    180.00   1.12615   0.04 
   3  -8  -1 o   0.224      0.221     180.00   1.11427   0.00 
   2  -4  -7 o  1194.249   1166.401    0.00    1.12574   0.33 
   5   3   3 o   8.658      8.147     180.00   1.14582   0.00 
   6  -5   4 o  188.288    186.232    180.00   1.12538   0.05 
   6  -5  -4 o  10.469     10.345     180.00   1.12514   0.00 
   5   2   4 o  90.738     84.947      0.00    1.14547   0.03 
   3  -4   8 o  95.516     99.920     180.00   1.11274   0.03 
   3  -5  -6 o  639.984    641.460    180.00   1.12449   0.18 
   4  -2  -8 o  273.252    275.174    180.00   1.12428   0.07 
   7  -2  -5 o  78.191     80.477     180.00   1.13474   0.02 
   7  -4   2 o  170.900    176.891     0.00    1.13459   0.05 
   0   8  -6 o  1580.091   1509.517   180.00   1.09861   0.41 
   1  -8   6 o  1218.022   1163.588    0.00    1.09863   0.32 
   4   5   2 o  1230.408   1337.838    0.00    1.13338   0.34 
   6   4  -5 o  18.268     18.988      0.00    1.12236   0.00 
   6   2  -7 o  430.736    446.738    180.00   1.12217   0.12 
   7   2  -1 o  145.110    134.927    180.00   1.14178   0.04 
   6   4  -1 o  39.989     45.645     180.00   1.13194   0.01 
   2   7  -7 o  376.550    352.077     0.00    1.09662   0.10 
   3  -2   8 o  517.517    529.943     0.00    1.12070   0.14 
   6   3   1 o  99.609     95.812      0.00    1.14107   0.03 
   4  -1   7 o  284.365    291.104     0.00    1.12031   0.08 
   4  -8   0 o  960.837    1028.459    0.00    1.10880   0.26 
   4   1  -9 o  656.192    695.183    180.00   1.10827   0.18 
   5   3  -8 o  47.174     49.187     180.00   1.10760   0.01 
   2   8  -4 o  979.111    887.025    180.00   1.09478   0.26 
   7  -5   1 o  782.794    780.627    180.00   1.11889   0.21 
   3   7  -6 o  354.672    321.977     0.00    1.09464   0.09 
   3  -4  -7 o  44.315     43.037     180.00   1.11826   0.01 
   4   2  -9 o  348.554    354.525    180.00   1.10647   0.09 
   0   0   9 o  36.487     34.899     180.00   1.11790   0.01 
   3  -8   5 o   4.542      4.227     180.00   1.09294   0.00 
   2  -6   8 o  138.521    131.488    180.00   1.09206   0.04 
   5   5   0 o   1.422      1.362      0.00    1.12639   0.00 
   2   6   3 o  36.990     35.739      0.00    1.12606   0.01 
   2  -6  -5 o  1354.168   1241.326    0.00    1.11544   0.37 
   5  -3  -7 o  70.382     65.789     180.00   1.11512   0.02 
   2   5  -9 o  258.098    250.614     0.00    1.09101   0.07 
   3   1   7 o  428.292    422.106     0.00    1.12516   0.12 
   1   3   7 o  617.887    610.609    180.00   1.12503   0.17 
   4  -5   7 o  314.071    289.931    180.00   1.10294   0.08 
   5  -1  -8 o  231.684    227.887    180.00   1.11428   0.06 
   4   6   0 o  1852.469   1841.561   180.00   1.12479   0.51 
   2   8  -3 o  37.614     35.992     180.00   1.10077   0.01 
   5   1   5 o  497.189    525.143    180.00   1.12223   0.14 
   7   2  -5 o  42.291     48.009     180.00   1.11145   0.01 
   6   0   4 o  209.132    241.161    180.00   1.13145   0.06 
   0   7   3 o  304.313    345.160    180.00   1.11104   0.08 
   1  -1   9 o  828.895    916.331    180.00   1.11036   0.22 
   7   1   1 o  2356.354   2736.731    0.00    1.13032   0.65 
   5  -7   4 o  957.593    919.790    180.00   1.09903   0.25 
   4  -7  -3 o  75.446     82.641     180.00   1.10943   0.02 
   7  -5  -2 o  15.273     16.662     180.00   1.10905   0.00 
   1   8   0 o  1186.712   1122.469    0.00    1.09752   0.31 
   1  -5  -6 o  900.576    912.252    180.00   1.11926   0.24 
   3  -6  -5 o  834.352    902.417     0.00    1.10877   0.22 
   3  -5   8 o  1090.877   1146.460    0.00    1.08497   0.28 
   0   8   1 o  681.122    638.370    180.00   1.09697   0.18 
   5  -5   6 o  748.651    696.515    180.00   1.09653   0.20 
   6  -3   5 o  26.883     28.145      0.00    1.10756   0.01 
   5  -7  -2 o  119.226    124.426    180.00   1.10751   0.03 
   5  -6  -4 o  450.396    468.503     0.00    1.10726   0.12 
   7   0  -6 o  3047.104   3118.716    0.00    1.10614   0.81 
   4   5  -8 o  46.823     47.165     180.00   1.08257   0.01 
   0   7  -8 o  917.697    876.988    180.00   1.06929   0.23 
   1  -5   9 o  207.067    208.537     0.00    1.08209   0.05 
   4   0  -9 o   5.372      4.797      0.00    1.09396   0.00 
   2   8  -2 o   7.303      6.563      0.00    1.09370   0.00 
   2  -1  -9 o  35.038     33.477     180.00   1.10481   0.01 
   5  -1   6 o  651.619    600.119     0.00    1.11525   0.18 
   7   0   2 o  320.090    321.422    180.00   1.12439   0.09 
   4  -8   4 o  387.807    389.956     0.00    1.08132   0.10 
   3   6   2 o  1425.608   1366.439   180.00   1.11462   0.38 
   1   8  -6 o  20.859     21.028     180.00   1.08067   0.01 
   2  -8   6 o  824.623    831.471    180.00   1.08072   0.21 
   5   4   2 o  547.492    568.543     0.00    1.12322   0.15 
   1  -4  -7 o  121.863    123.771    180.00   1.11372   0.03 
   1  -6  -5 o  365.745    323.026     0.00    1.10316   0.10 
   7  -2   3 o  69.005     77.678     180.00   1.11188   0.02 
   1   6   4 o  206.572    235.700    180.00   1.11147   0.06 
   4   3  -9 o  154.208    160.192    180.00   1.08878   0.04 
   7  -3   3 o   4.732      5.367     180.00   1.11031   0.00 
   3  -1   8 o  154.676    150.304    180.00   1.09987   0.04 
   2   8  -5 o  153.691    156.503    180.00   1.07636   0.04 
   7  -1  -6 o   3.827      3.731      0.00    1.09940   0.00 
   6   3  -7 o  844.347    911.091     0.00    1.08814   0.22 
   4  -5  -6 o  1012.413   972.283     0.00    1.09850   0.27 
   2  -3  -8 o  84.162     80.650     180.00   1.09837   0.02 
   1   7  -8 o  22.039     21.538     180.00   1.06217   0.01 
   1  -1  -9 o  760.063    721.117     0.00    1.09772   0.20 
   7   1  -6 o  806.953    753.298     0.00    1.09675   0.21 
   4   6  -7 o   7.978      8.023     180.00   1.07310   0.00 
   3   6  -8 o  108.235    107.413     0.00    1.07256   0.03 
   3   7   0 o   0.197      0.177      0.00    1.09549   0.00 
   1  -7   8 o  109.187    107.780    180.00   1.05967   0.03 
   6  -2  -7 o  268.421    240.830    180.00   1.09537   0.07 
   7  -5   2 o  46.274     41.569     180.00   1.09531   0.01 
   6  -7   1 o  14.884     15.308     180.00   1.08403   0.00 
   7   2   0 o  108.582    109.958    180.00   1.11396   0.03 
   6  -4   5 o  300.391    266.576    180.00   1.09449   0.08 
   6  -2   5 o  192.971    179.289     0.00    1.10450   0.05 
   4  -8  -1 o  918.132    928.756     0.00    1.08318   0.23 
   3  -1  -9 o  1671.867   1501.495    0.00    1.09347   0.43 
   2  -4   9 o   8.678      8.276     180.00   1.07038   0.00 
   6  -7   0 o  614.908    615.398     0.00    1.08238   0.16 
   5   6  -4 o  67.081     66.834      0.00    1.08202   0.02 
   4  -7   6 o  1704.450   1623.639    0.00    1.06983   0.42 
   7  -4   3 o  1317.972   1212.978    0.00    1.09267   0.34 
   4  -4  -7 o  122.300    113.911    180.00   1.09240   0.03 
   2  -3   9 o  462.967    465.105    180.00   1.08106   0.12 
   2  -8  -2 o  71.627     71.622     180.00   1.08131   0.02 
   6  -6  -3 o  224.489    210.608     0.00    1.09221   0.06 
   8  -1  -2 o  880.038    794.421     0.00    1.10220   0.23 
   3  -3  -8 o   1.559      1.501     180.00   1.09113   0.00 
   1  -9   3 o  257.036    245.275     0.00    1.06836   0.06 
   1  -9   2 o  374.458    359.606    180.00   1.06750   0.09 
   8  -2  -1 o  1159.344   1142.703   180.00   1.10021   0.30 
   6   4   0 o   0.734      0.728     180.00   1.09996   0.00 
   8  -2  -2 o  41.582     40.979      0.00    1.09976   0.01 
   7  -4  -4 o  186.378    181.875     0.00    1.09946   0.05 
   2  -9   2 o  2859.878   2770.634    0.00    1.06667   0.71 
   2   1   8 o  37.333     39.074     180.00   1.08881   0.01 
   7  -3  -5 o  842.355    810.020     0.00    1.09853   0.22 
   8  -1  -1 o  1221.882   1175.930    0.00    1.09851   0.32 
   7   3  -3 o  156.605    148.968    180.00   1.09784   0.04 
   2  -2   9 o  362.159    368.896     0.00    1.07671   0.09 
   1  -3  -8 o  389.461    439.762     0.00    1.08748   0.10 
   7  -1   3 o  132.637    125.065     0.00    1.09719   0.03 
   1   2   8 o  224.752    257.429     0.00    1.08692   0.06 
   6   4  -6 o  34.521     38.761      0.00    1.08683   0.01 
   2  -9   3 o   0.120      0.118     180.00   1.06439   0.00 
   6  -6   4 o   5.728      5.848     180.00   1.07608   0.00 
   5   6  -3 o  103.142    114.015     0.00    1.08581   0.03 
   4   7  -3 o  17.172     17.767      0.00    1.07472   0.00 
   3  -7   7 o  109.307    106.883     0.00    1.06275   0.03 
   2   8  -1 o  395.342    408.741     0.00    1.07430   0.10 
   3   4   5 o  161.569    141.050    180.00   1.09504   0.04 
   0   8  -7 o  137.899    139.578     0.00    1.04990   0.03 
   7   3  -2 o  139.017    118.226     0.00    1.09423   0.04 
   4  -6  -5 o  535.582    550.333    180.00   1.08411   0.14 
   6  -7   2 o  225.928    228.679     0.00    1.07327   0.06 
   1   3 -10 o  90.870     88.770     180.00   1.06073   0.02 
   4  -6   7 o  159.701    156.026     0.00    1.06082   0.04 
   3  -8  -2 o  149.108    148.315     0.00    1.07256   0.04 
   8  -1  -3 o  866.922    787.344    180.00   1.09281   0.23 
   4   7  -4 o   9.805      9.499     180.00   1.07168   0.00 
   3   5  -9 o   0.389      0.385     180.00   1.05946   0.00 
   1  -8   7 o  263.006    264.467    180.00   1.04693   0.06 
   5   5  -7 o  92.727     87.646      0.00    1.06999   0.02 
   4   3   5 o  52.188     50.940     180.00   1.09021   0.01 
   7  -5  -3 o  120.942    122.368     0.00    1.08004   0.03 
   4   4  -9 o  821.027    824.184    180.00   1.05736   0.20 
   1  -9   4 o  323.494    323.692    180.00   1.05734   0.08 
   2  -7  -4 o  1289.292   1309.898   180.00   1.07947   0.33 
   2  -9   1 o  1023.233   1025.391    0.00    1.05710   0.25 
   2   3 -10 o  1373.895   1369.433   180.00   1.05678   0.33 
   0   5   6 o  91.200     95.554      0.00    1.08880   0.02 
   8   0  -2 o   5.394      5.673     180.00   1.08877   0.00 
   7   3  -4 o   1.237      1.323     180.00   1.08852   0.00 
   3   3   6 o  101.955    112.651     0.00    1.08819   0.03 
   5   4  -8 o  837.154    804.649    180.00   1.06731   0.21 
   4   4   4 o  85.108     96.577     180.00   1.08798   0.02 
   1   0   9 o  63.104     64.427     180.00   1.07793   0.02 
   0   9  -3 o  20.193     19.895      0.00    1.05568   0.00 
   8  -2   0 o  790.662    909.840    180.00   1.08771   0.20 
   6  -5   5 o  447.464    431.794    180.00   1.06693   0.11 
   0   6  -9 o  252.083    248.299    180.00   1.05509   0.06 
   7  -2  -6 o  1125.589   1148.375   180.00   1.07739   0.28 
   5   6  -2 o  152.623    155.401     0.00    1.07709   0.04 
   5  -8   1 o   0.947      0.918     180.00   1.06651   0.00 
   1   6  -9 o  1533.685   1509.633    0.00    1.05452   0.37 
   5   6  -5 o  1735.184   1691.745   180.00   1.06608   0.43 
   5  -7   5 o  51.957     51.009     180.00   1.05459   0.01 
   8  -2  -3 o  58.633     68.050     180.00   1.08642   0.02 
   6   2   3 o   6.832      5.935     180.00   1.09510   0.00 
   5  -2  -8 o  66.513     67.833      0.00    1.07631   0.02 
   8  -3  -1 o  216.280    247.150    180.00   1.08613   0.06 
   6  -1   5 o  734.584    817.803     0.00    1.08570   0.19 
   4   0   7 o  17.919     18.429     180.00   1.08420   0.00 
   0   4   7 o  878.090    897.288     0.00    1.08399   0.22 
   3   7  -7 o  616.614    617.273     0.00    1.05180   0.15 
   8   0  -3 o  44.286     44.754     180.00   1.08365   0.01 
   0   9  -2 o  150.769    150.961     0.00    1.05183   0.04 
   1   2 -10 o   4.642      4.537      0.00    1.06294   0.00 
   2   7  -8 o  214.450    206.503     0.00    1.03927   0.05 
   0   6   5 o  165.816    172.337    180.00   1.07369   0.04 
   3  -7  -4 o  338.802    349.162    180.00   1.07369   0.08 
   5  -8   2 o  1092.281   1067.968    0.00    1.06303   0.27 
   0   1   9 o  319.943    325.299     0.00    1.07321   0.08 
   2   2 -10 o  1376.836   1342.534    0.00    1.06231   0.34 
   1  -8  -2 o   4.161      4.166     180.00   1.07274   0.00 
   7   2  -6 o  71.903     71.216     180.00   1.07241   0.02 
   2  -9   4 o  160.578    162.585     0.00    1.05047   0.04 
   8  -3  -2 o  276.672    273.467    180.00   1.08174   0.07 
   3   5   4 o   6.980      6.888     180.00   1.08158   0.00 
   5   5   1 o  19.778     19.535     180.00   1.08146   0.01 
   6   5  -3 o  1103.614   1052.147    0.00    1.07140   0.28 
   3  -9   2 o  251.561    255.574     0.00    1.04944   0.06 
   1   8  -7 o  707.054    665.122    180.00   1.03708   0.17 
   2   7   2 o   0.002      0.002     180.00   1.07092   0.00 
   0   3 -10 o  146.446    148.207     0.00    1.04839   0.04 
   5   0   6 o  73.558     74.534      0.00    1.08000   0.02 
   0   9  -4 o  249.833    252.307    180.00   1.04801   0.06 
   5  -8   3 o   1.822      1.842     180.00   1.04802   0.00 
   4   6   1 o  962.406    980.203    180.00   1.07939   0.24 
   1  -9   5 o  10.862     10.026     180.00   1.03550   0.00 
   2   8  -6 o  407.288    410.277    180.00   1.04729   0.10 
   3  -8   6 o  450.267    453.443    180.00   1.04736   0.11 
   6  -4  -6 o  181.179    169.830     0.00    1.06874   0.05 
   2  -7   8 o  66.327     60.926     180.00   1.03461   0.02 
   2   4   6 o   7.389      7.588     180.00   1.07820   0.00 
   5  -8   0 o  202.844    205.011    180.00   1.05812   0.05 
   7   3  -1 o   0.087      0.089      0.00    1.07806   0.00 
   6  -7  -1 o  100.805    95.292      0.00    1.06848   0.03 
   8  -3   0 o  17.334     17.784     180.00   1.07798   0.00 
   1  -7  -4 o   7.848      7.432      0.00    1.06806   0.00 
   6   3   2 o  474.262    564.142     0.00    1.08633   0.12 
   2  -5   9 o  1130.051   1135.395    0.00    1.04593   0.27 
   7  -6   0 o  127.802    121.703     0.00    1.06781   0.03 
   4   7  -5 o  647.096    646.306     0.00    1.05680   0.16 
   7   3  -5 o  860.068    825.129    180.00   1.06722   0.21 
   6   5  -4 o  93.667     90.048     180.00   1.06712   0.02 
   4  -8   5 o  646.771    650.575     0.00    1.04535   0.15 
   3  -6   8 o  985.962    992.348     0.00    1.04514   0.23 
   6   1  -8 o   8.943      8.644      0.00    1.06679   0.00 
   4  -3  -8 o  337.925    326.550     0.00    1.06680   0.08 
   1   7   3 o  1995.400   1930.198    0.00    1.06673   0.49 
   6  -5  -5 o  14.808     14.334      0.00    1.06668   0.00 
   1   4 -10 o  41.286     41.628      0.00    1.04452   0.01 
   3  -9   3 o  271.367    273.756     0.00    1.04431   0.06 
   5   1  -9 o  2263.795   2217.589    0.00    1.05532   0.55 
   4   7  -2 o  40.281     39.504      0.00    1.06562   0.01 
   4  -1  -9 o  917.431    901.055    180.00   1.06530   0.23 
   6   2  -8 o  564.236    551.349    180.00   1.05479   0.14 
   3   0   8 o  404.322    397.931     0.00    1.06529   0.10 
   6   1   4 o  29.947     30.154      0.00    1.08352   0.01 
   1  -9   1 o  1025.974   1005.809   180.00   1.05486   0.25 
   5  -6   6 o  222.403    218.223     0.00    1.05475   0.05 
   3  -9   1 o  183.414    185.168     0.00    1.04326   0.04 
   6   0  -8 o  2018.140   1988.621    0.00    1.06437   0.50 
   5  -7  -3 o  1243.577   1225.359   180.00   1.06460   0.31 
   2   5   5 o   1.130      1.189      0.00    1.07389   0.00 
   2   1 -10 o  202.890    199.217     0.00    1.05355   0.05 
   8  -1   0 o  345.077    338.520     0.00    1.08211   0.09 
   7   1   2 o  1267.289   1244.005    0.00    1.08161   0.32 
   0   9  -5 o  1236.933   1192.281   180.00   1.02955   0.29 
   8   0  -1 o  13.161     13.031      0.00    1.08125   0.00 
   4   2   6 o  519.103    517.026     0.00    1.07252   0.13 
   7  -6   1 o  565.277    550.499     0.00    1.06249   0.14 
   2  -8   7 o  81.223     77.668     180.00   1.02856   0.02 
   8  -1  -4 o  237.461    224.908     0.00    1.07130   0.06 
   1   1 -10 o  135.945    138.037     0.00    1.05090   0.03 
   1  -6   9 o  861.710    832.496     0.00    1.03973   0.20 
   6  -7   3 o   1.116      1.129      0.00    1.05115   0.00 
   7  -5   3 o  14.062     13.630      0.00    1.06115   0.00 
   7  -6  -1 o  29.153     28.240      0.00    1.06120   0.01 
   5   2  -9 o  263.771    268.957     0.00    1.05049   0.06 
   0   3   8 o  1306.443   1271.350   180.00   1.06001   0.32 
   2   6  -9 o  27.451     26.133     180.00   1.03809   0.01 
   3   8  -4 o  1133.735   1080.060    0.00    1.03815   0.27 
   2  -9   5 o  18.426     17.312     180.00   1.02624   0.00 
   2   4 -10 o  32.100     30.360     180.00   1.03759   0.01 
   3   3 -10 o  99.432     93.319      0.00    1.03705   0.02 
   2  -1   9 o  848.108    861.756     0.00    1.05784   0.21 
   4  -8  -2 o  931.797    942.012     0.00    1.04771   0.22 
   4  -3   8 o  848.220    856.273    180.00   1.04747   0.20 
   0   2 -10 o  124.652    125.656     0.00    1.04729   0.03 
   7   2   1 o  1842.101   1897.970   180.00   1.07558   0.46 
   0   4 -10 o  484.024    447.450    180.00   1.03584   0.11 
   5  -5  -6 o  721.245    735.853    180.00   1.05745   0.18 
   8   0  -4 o  122.075    118.760     0.00    1.06641   0.03 
   1   8   1 o  179.954    181.374     0.00    1.05704   0.04 
   4   5   3 o  152.291    148.759    180.00   1.06620   0.04 
   5   6  -1 o  558.289    558.393     0.00    1.05672   0.14 
   5   0  -9 o   1.995      2.002      0.00    1.04614   0.00 
   3   2 -10 o  445.442    448.275    180.00   1.04548   0.11 
   8  -3  -3 o   0.280      0.276      0.00    1.06526   0.00 
   2   8   0 o  15.621     15.887     180.00   1.04446   0.00 
   6   5  -2 o  541.366    532.292     0.00    1.06364   0.13 
   2  -2  -9 o   1.228      1.199     180.00   1.05400   0.00 
   8  -2   1 o   9.685      9.516     180.00   1.06355   0.00 
   5  -4   7 o   0.540      0.548     180.00   1.04369   0.00 
   2   3   7 o  296.283    289.684     0.00    1.06315   0.07 
   6   4  -7 o  225.430    228.654    180.00   1.04309   0.05 
   4   7  -6 o  83.428     78.295      0.00    1.03152   0.02 
   3   2   7 o  107.551    104.137    180.00   1.06212   0.03 
   3   7   1 o   2.131      2.091      0.00    1.05281   0.00 
   8  -2  -4 o  37.404     36.099     180.00   1.06153   0.01 
   6  -3  -7 o  19.805     19.774     180.00   1.05202   0.00 
   8   1  -2 o   9.686      9.302     180.00   1.06111   0.00 
   5  -4  -7 o   9.974     10.022     180.00   1.05175   0.00 
   4  -7  -4 o   5.823      5.880     180.00   1.05151   0.00 
   6   5  -5 o  26.971     27.394     180.00   1.05122   0.01 
   7  -4  -5 o  135.753    138.038     0.00    1.05129   0.03 
   5   2   5 o  361.339    346.133     0.00    1.06038   0.09 
   5   3   4 o  959.920    887.587    180.00   1.06883   0.24 
   5  -3   7 o  735.623    748.453     0.00    1.05101   0.18 
   4  -4   8 o  70.956     68.844      0.00    1.04055   0.02 
   8   1  -3 o  12.467     12.020     180.00   1.06005   0.00 
   3   1 -10 o  449.593    434.696    180.00   1.04027   0.11 
   3   8  -3 o  110.959    107.216    180.00   1.04032   0.03 
   7   0   3 o  17.031     16.035      0.00    1.06806   0.00 
   5   6  -6 o  733.227    706.730    180.00   1.03956   0.17 
   3  -9   4 o   1.124      1.073     180.00   1.02833   0.00 
   6   4   1 o  213.168    220.603    180.00   1.05862   0.05 
   1   9  -3 o  30.337     28.840     180.00   1.02805   0.01 
   5   4   3 o  1857.926   1948.502    0.00    1.05835   0.45 
   8  -3   1 o   0.105      0.109      0.00    1.05811   0.00 
   5  -8  -1 o  131.271    125.968     0.00    1.03868   0.03 
   7   0  -7 o   1.055      1.073     180.00   1.04858   0.00 
   8  -4  -1 o  4555.453   4705.585    0.00    1.05801   1.11 
   0   8   2 o  616.801    625.098     0.00    1.04805   0.15 
   6  -1  -8 o  901.976    913.059     0.00    1.04782   0.22 
   3  -2  -9 o  12.024     12.138      0.00    1.04735   0.00 
   0   9  -1 o  185.154    173.048     0.00    1.03684   0.04 
   2  -9   0 o  35.787     33.335     180.00   1.03661   0.01 
   3   8  -5 o  72.248     68.469      0.00    1.02517   0.02 
   6  -6  -4 o   0.008      0.008      0.00    1.04617   0.00 
   7  -3   4 o  31.078     30.252      0.00    1.05533   0.01 
   7  -6   2 o  16.627     16.708      0.00    1.04577   0.00 
   4   7  -1 o  102.259    103.208     0.00    1.04529   0.02 
   8  -4   0 o  43.400     42.243      0.00    1.05410   0.01 
   5  -6  -5 o  560.752    568.966     0.00    1.04485   0.13 
   1  -2  -9 o  682.327    693.543    180.00   1.04462   0.16 
   1   9  -4 o  202.383    193.180     0.00    1.02373   0.05 
   5  -2   7 o   3.743      3.809     180.00   1.04449   0.00 
   8   0   0 o  1070.486   1031.965   180.00   1.06186   0.26 
   6   0   5 o  781.173    759.086     0.00    1.05345   0.19 
   7   1  -7 o  104.776    106.854    180.00   1.04409   0.02 
   7  -2   4 o  280.442    273.975     0.00    1.05303   0.07 
   5  -8   4 o   0.159      0.150     180.00   1.02289   0.00 
   7  -4   4 o  503.281    513.136     0.00    1.04366   0.12 
   6  -7  -2 o  105.186    106.998     0.00    1.04368   0.02 
   7  -6  -2 o  31.060     31.646     180.00   1.04330   0.01 
   0   1 -10 o  439.743    401.380     0.00    1.03265   0.10 
   7  -3  -6 o  566.275    578.134     0.00    1.04271   0.13 
   2   8  -7 o  119.979    128.039    180.00   1.01013   0.03 
   1   9  -2 o   0.503      0.459     180.00   1.02173   0.00 
   5   3  -9 o   7.656      7.055      0.00    1.03221   0.00 
   4   6  -8 o   8.109      7.426      0.00    1.02138   0.00 
   7  -5  -4 o   6.758      6.783      0.00    1.04184   0.00 
   2   6   4 o  2798.739   2883.051    0.00    1.05091   0.67 
   2   0 -10 o  348.836    327.020     0.00    1.03152   0.08 
   1  -9   0 o  459.593    429.381     0.00    1.03164   0.11 
   3   8  -2 o  1817.268   1704.065   180.00   1.03149   0.42 
   8  -4  -2 o  693.454    717.203     0.00    1.05033   0.17 
   0   7   4 o   7.495      7.283     180.00   1.04100   0.00 
   3   6   3 o  58.177     60.399     180.00   1.04993   0.01 
   4  -2   8 o   5.407      5.237     180.00   1.04067   0.00 
   6   3  -8 o  61.511     60.192      0.00    1.02976   0.01 
   7  -1  -7 o  341.515    329.502     0.00    1.03932   0.08 
   5   5  -8 o  424.765    397.055    180.00   1.01815   0.10 
   4  -9   2 o  149.345    140.015     0.00    1.01808   0.03 
   8   1  -4 o  57.581     58.296     180.00   1.04746   0.01 
   6  -6   5 o   4.541      4.312     180.00   1.02801   0.00 
   8  -1   1 o  1234.052   1195.541    0.00    1.05464   0.30 
   2  -5  -7 o  972.409    908.951    180.00   1.03703   0.23 
   1   5 -10 o  662.296    647.786    180.00   1.01615   0.15 
   1  -9   6 o  12.498     13.199     180.00   1.00479   0.00 
   3   4 -10 o  468.059    460.220    180.00   1.01595   0.11 
   4   5  -9 o  554.042    550.150     0.00    1.01565   0.12 
   3  -9   0 o  19.720     18.358      0.00    1.02632   0.00 
   7   3  -6 o  1630.649   1495.109   180.00   1.03596   0.38 
   1   0 -10 o  1324.931   1232.720   180.00   1.02598   0.30 
   6   5  -1 o  676.323    692.132    180.00   1.04461   0.16 
   4  -9   1 o   7.564      7.652      0.00    1.01512   0.00 
   1   5   6 o  330.793    338.126    180.00   1.04455   0.08 
   6   5  -6 o  1339.572   1269.551   180.00   1.02519   0.31 
   3  -9   5 o  11.975     12.349      0.00    1.00295   0.00 
   1   1   9 o  73.393     65.927      0.00    1.03458   0.02 
   3  -5  -7 o  248.088    222.366     0.00    1.03427   0.06 
   3  -8  -3 o  148.102    143.480     0.00    1.02442   0.03 
   7   3   0 o  15.570     16.166      0.00    1.05092   0.00 
   0   9  -6 o  321.685    330.760    180.00   1.00195   0.07 
   6  -3   6 o  144.002    129.583     0.00    1.03347   0.03 
   3  -3   9 o  53.429     51.021     180.00   1.02346   0.01 
   8   1  -1 o  115.478    120.817     0.00    1.05053   0.03 
   1  -4  10 o  219.318    232.465     0.00    1.01267   0.05 
   5  -5   7 o   8.309      7.905     180.00   1.02334   0.00 
   0   7  -9 o  2512.594   2628.028   180.00   1.00049   0.55 
   3   0 -10 o   8.573      7.855     180.00   1.02203   0.00 
   2  -6  -6 o  165.743    153.112     0.00    1.03178   0.04 
   1   4   7 o  613.924    587.405     0.00    1.04054   0.14 
   0   5 -10 o  332.912    356.667     0.00    1.01104   0.07 
   1  -3  10 o  241.669    220.775    180.00   1.02138   0.05 
   4  -9   3 o  1212.213   1301.813    0.00    1.01071   0.27 
   2  -6   9 o  149.729    160.004     0.00    1.01042   0.03 
   4  -7   7 o  1140.183   1220.823    0.00    1.01051   0.25 
   8  -1  -5 o  1221.033   1172.786    0.00    1.03972   0.29 
   4  -5   8 o  11.386     10.384     180.00   1.02071   0.00 
   7   4  -4 o  396.174    395.453     0.00    1.02990   0.09 
   8  -4   1 o  938.399    906.886    180.00   1.03896   0.22 
   8   0  -5 o  44.274     42.783     180.00   1.03872   0.01 
   1   9  -5 o  81.445     86.452     180.00   1.00915   0.02 
   6  -7   4 o   0.004      0.004     180.00   1.01971   0.00 
   8  -3  -4 o  107.782    103.256     0.00    1.03827   0.03 
   3  -6  -6 o  41.182     40.679      0.00    1.02930   0.01 
   2  -8  -3 o   4.468      4.381      0.00    1.02920   0.00 
   7  -6   3 o  1988.549   1834.720   180.00   1.01920   0.45 
   1   7  -9 o  16.199     18.067      0.00    0.99721   0.00 
   4   1   7 o  763.615    721.054    180.00   1.03765   0.18 
   0   8  -8 o   9.302     10.364      0.00    0.99719   0.00 
   5  -3  -8 o  29.039     28.118     180.00   1.02861   0.01 
   3  -8   7 o  406.684    454.927    180.00   0.99711   0.09 
   3   6  -9 o   9.389      9.972      0.00    1.00791   0.00 
   7  -1   4 o  39.378     36.750      0.00    1.03703   0.01 
   6  -2   6 o  2230.835   2082.912   180.00   1.02759   0.51 
   2   5 -10 o  2343.859   2496.724    0.00    1.00688   0.52 
   1  -2  10 o  542.750    511.123    180.00   1.01739   0.12 
   3  -4   9 o  20.745     19.610      0.00    1.01733   0.00 
   2   0   9 o  41.580     38.260      0.00    1.02663   0.01 
   3  -2   9 o   0.860      0.817      0.00    1.01680   0.00 
   7   2  -7 o   0.021      0.019     180.00   1.02637   0.00 
   6  -4   6 o  43.790     40.523      0.00    1.02618   0.01 
   4  -2  -9 o  59.574     55.811      0.00    1.02554   0.01 
   7   4  -3 o  196.144    174.659    180.00   1.03433   0.05 
   5   1   6 o  94.599     84.098      0.00    1.03429   0.02 
   2  -4  -8 o  138.617    132.486     0.00    1.02501   0.03 
   5  -7   6 o  254.576    270.202    180.00   1.00495   0.06 
   2  -9   6 o  85.124     92.925     180.00   0.99378   0.02 
   5   6  -7 o  86.803     92.212      0.00    1.00474   0.02 
   5  -1   7 o   6.255      6.027      0.00    1.02485   0.00 
   1  -5  -7 o  17.900     17.468     180.00   1.02458   0.00 
   4   2 -10 o  905.389    929.896     0.00    1.01463   0.20 
   4   3 -10 o   1.215      1.275     180.00   1.00407   0.00 
   5  -1  -9 o  254.299    246.940     0.00    1.02400   0.06 
   3   7  -8 o  131.006    135.987    180.00   1.00349   0.03 
   1  -8   8 o  320.006    342.784    180.00   0.99211   0.07 
   8  -4  -3 o  362.818    334.239    180.00   1.03179   0.08 
   5   4  -9 o  216.167    220.274    180.00   1.00249   0.05 
   3   8  -6 o  18.824     19.262      0.00    1.00257   0.00 
   4  -8   6 o  1033.130   1061.692    0.00    1.00264   0.23 
   4   1 -10 o  567.661    604.485     0.00    1.01277   0.13 
   2   2   8 o  25.845     24.721     180.00   1.03105   0.01 
   3  -4  -8 o   0.406      0.369      0.00    1.02211   0.00 
   1   6   5 o  207.378    199.855     0.00    1.03094   0.05 
   3   8  -1 o  889.185    958.833    180.00   1.01248   0.20 
   5   5   2 o  225.198    224.057     0.00    1.03053   0.05 
   0   9   0 o  934.203    1010.092   180.00   1.01207   0.21 
   1  -7   9 o   0.361      0.378     180.00   0.99008   0.00 
   8  -2   2 o  680.319    686.011     0.00    1.02996   0.16 
   4  -1   8 o  58.626     52.355      0.00    1.02093   0.01 
   3   1   8 o  112.825    100.170     0.00    1.02071   0.03 
   0   2   9 o  1846.530   1654.801    0.00    1.02044   0.42 
   1   8  -8 o  171.234    172.824    180.00   0.98868   0.04 
   1   3   8 o  975.576    891.711    180.00   1.01951   0.22 
   8  -3   2 o  819.043    789.686     0.00    1.02838   0.19 
   4   6   2 o  24.582     23.474      0.00    1.02816   0.01 
   5  -8  -2 o  165.429    177.358     0.00    1.00993   0.04 
   7  -5   4 o  819.718    753.532     0.00    1.01937   0.19 
   1  -6  -6 o  455.122    418.433     0.00    1.01928   0.10 
   7   4  -2 o  240.010    226.199    180.00   1.02791   0.06 
   6  -2  -8 o  119.951    110.794    180.00   1.01902   0.03 
   3  -5   9 o  20.818     22.353     180.00   0.99906   0.00 
   1  -8  -3 o  471.109    434.955     0.00    1.01906   0.11 
   8  -5  -1 o  103.558    95.699     180.00   1.01897   0.02 
   8  -5   0 o  2146.601   1987.737   180.00   1.01874   0.49 
   8  -2  -5 o  89.251     82.543      0.00    1.02740   0.02 
   4   7  -7 o  52.301     57.828     180.00   0.99800   0.01 
   5   6   0 o  67.283     60.802     180.00   1.02661   0.02 
   7  -2  -7 o  433.291    402.106    180.00   1.01738   0.10 
   3  -7   8 o  210.180    235.030     0.00    0.99722   0.05 
   4  -5  -7 o  957.012    906.045    180.00   1.01664   0.22 
   2  -9  -1 o  42.287     45.284     180.00   1.00701   0.01 
   1   9  -6 o  152.970    135.791     0.00    0.98558   0.03 
   8   2  -3 o  800.051    785.294     0.00    1.02472   0.18 
   6  -5   6 o  574.558    617.019     0.00    1.00652   0.13 
   8   1  -5 o  23.700     23.314      0.00    1.02451   0.01 
   8   0   1 o  100.262    88.760     180.00   1.03243   0.02 
   0   0  10 o  841.501    906.080    180.00   1.00611   0.19 
   5  -7  -4 o  135.299    133.652    180.00   1.01580   0.03 
   7  -6  -3 o  215.807    213.553    180.00   1.01577   0.05 
   4   7   0 o  1126.258   1129.314    0.00    1.01557   0.25 
   7   4  -5 o   0.079      0.081      0.00    1.01504   0.00 
   1   9  -1 o   1.317      1.410      0.00    1.00533   0.00 
   4  -8  -3 o  85.512     91.847      0.00    1.00533   0.02 
   8  -4   2 o  158.996    167.277    180.00   1.01400   0.04 
   8   2  -2 o  398.352    360.164     0.00    1.02233   0.09 
   7   2   2 o  868.270    891.432    180.00   1.02994   0.20 
   6  -8   1 o   7.385      7.762     180.00   1.00410   0.00 
   1  -4  -8 o  39.114     41.540      0.00    1.01321   0.01 
   4  -9   4 o  54.560     59.556      0.00    0.99366   0.01 
   8   1   0 o  244.439    248.353    180.00   1.02931   0.06 
   2   7   3 o  3606.088   3895.380   180.00   1.01263   0.81 
   7  -7   0 o   3.078      3.124     180.00   1.00281   0.00 
   4  -6  -6 o  302.227    329.362     0.00    1.01215   0.07 
   1  -5  10 o   2.340      2.515      0.00    0.99219   0.00 
   5  -6   7 o  94.247     101.518     0.00    0.99216   0.02 
   6   3   3 o  38.856     36.507     180.00   1.02788   0.01 
   6   2   4 o  112.591    105.744     0.00    1.02787   0.03 
   4  -9   0 o  217.428    221.022    180.00   1.00210   0.05 
   7   1   3 o  39.356     36.804      0.00    1.02780   0.01 
   2   7  -9 o  385.101    345.350     0.00    0.98062   0.08 
   7  -7   1 o  314.588    319.996     0.00    1.00152   0.07 
   1  -1  10 o   7.090      7.275      0.00    1.00112   0.00 
   1   8   2 o  172.987    188.129    180.00   1.01039   0.04 
   6  -7  -3 o  1110.219   1198.634    0.00    1.01020   0.25 
   2  -7  -5 o  34.764     37.422     180.00   1.01001   0.01 
   8  -1   2 o  312.367    289.650     0.00    1.01856   0.07 
   4  -6   8 o  56.786     59.963      0.00    0.99005   0.01 
   3  -9  -1 o  85.905     90.089      0.00    1.00016   0.02 
   5  -8   5 o  435.628    457.086     0.00    0.98977   0.09 
   1  -9  -1 o  112.270    118.450     0.00    0.99987   0.02 
   6  -8   0 o  30.632     32.457      0.00    0.99967   0.01 
   1   6 -10 o  117.712    108.825     0.00    0.97847   0.02 
   8  -5  -2 o  100.067    105.773    180.00   1.00890   0.02 
   2   9  -3 o  17.050     17.494      0.00    0.98881   0.00 
   4   0 -10 o  244.129    264.887    180.00   0.99870   0.05 
   8  -5   1 o   1.926      2.046     180.00   1.00824   0.00 
   2  -1 -10 o  32.833     35.761     180.00   0.99859   0.01 
   8   2  -4 o  10.557      9.918     180.00   1.01658   0.00 
   3  -7  -5 o  176.256    187.815    180.00   1.00791   0.04 
   6  -8   2 o   1.084      1.179     180.00   0.99861   0.00 
   6   5   0 o  100.099    97.190     180.00   1.01603   0.02 
   2   9  -4 o  17.579     16.913     180.00   0.98744   0.00 
   7   3  -7 o   8.389      9.635     180.00   0.99735   0.00 
   0   6 -10 o  28.376     27.005     180.00   0.97651   0.01 
   2   8   1 o   4.870      5.252      0.00    1.00674   0.00 
   6  -5  -6 o  160.551    173.811    180.00   1.00627   0.04 
   4  -4  -8 o  70.007     75.143      0.00    1.00486   0.02 
   6   1  -9 o  343.445    396.568    180.00   0.99534   0.07 
   3   7   2 o  52.081     56.012     180.00   1.00459   0.01 
   2  -8   8 o  271.808    262.010     0.00    0.97404   0.06 
   8  -4  -4 o  455.401    481.340    180.00   1.00405   0.10 
   3   5 -10 o  18.014     15.515      0.00    0.98438   0.00 
   6   4  -8 o  38.107     42.560      0.00    0.99437   0.01 
   7  -7  -1 o  325.049    362.527     0.00    0.99426   0.07 
   8  -3  -5 o   0.122      0.123     180.00   1.00312   0.00 
   8   0  -6 o  307.951    310.163    180.00   1.00296   0.07 
   7   4  -1 o  177.066    199.942     0.00    1.01124   0.04 
   6  -8   3 o  45.334     38.625      0.00    0.98367   0.01 
   6   4   2 o  384.176    436.748    180.00   1.01124   0.09 
   6   1   5 o  228.943    258.403    180.00   1.01121   0.05 
   5   7  -4 o  60.763     65.724     180.00   0.99305   0.01 
   5   7  -3 o  17.559     18.951     180.00   0.99293   0.00 
   4   4   5 o  276.508    306.245     0.00    1.01052   0.06 
   3  -1 -10 o  25.402     27.421     180.00   0.99271   0.01 
   1   7   4 o  114.178    114.176    180.00   1.00168   0.03 
   4   4 -10 o  75.119     65.488     180.00   0.98220   0.02 
   8   2  -1 o  37.410     39.641     180.00   1.00964   0.01 
   6  -4  -7 o  2138.526   2181.309    0.00    1.00113   0.47 
   6  -1   6 o  178.836    188.899    180.00   1.00919   0.04 
   8  -1  -6 o  84.370     86.996     180.00   1.00073   0.02 
   7   0   4 o   6.489      6.813     180.00   1.00913   0.00 
   6   5  -7 o  1228.355   1330.491   180.00   0.99125   0.26 
   6  -7   5 o  80.628     70.838      0.00    0.98145   0.02 
   3   4   6 o  41.961     44.259     180.00   1.00860   0.01 
   3  -9   6 o  194.646    196.290     0.00    0.97021   0.04 
   6   0  -9 o   0.163      0.176      0.00    0.99034   0.00 
   7  -7   2 o   7.908      8.518     180.00   0.99048   0.00 
   7   3   1 o   0.089      0.093     180.00   1.01524   0.00 
   7  -4  -6 o   2.845      3.061     180.00   0.99894   0.00 
   8   2  -5 o  37.599     40.805      0.00    0.99864   0.01 
   0   5   7 o  230.612    252.103    180.00   0.99848   0.05 
   3  -1   9 o  1944.415   2162.743   180.00   0.99806   0.42 
   1  -7  -5 o  49.675     55.423      0.00    0.99806   0.01 
   6   2  -9 o  133.274    135.996    180.00   0.98857   0.03 
   4  -9   5 o  181.152    181.467    180.00   0.96834   0.04 
   7  -3   5 o  1311.789   1481.725   180.00   0.99782   0.29 
   2  -3  -9 o  75.065     86.149      0.00    0.99743   0.02 
   7  -5  -5 o   8.075      9.274     180.00   0.99748   0.00 
   2   6 -10 o  170.765    171.019    180.00   0.96764   0.03 
   2   8  -8 o  222.250    222.628     0.00    0.96758   0.05 
   1  -9   7 o  451.280    452.129    180.00   0.96759   0.09 
   4   3   6 o   2.262      2.459      0.00    1.00535   0.00 
   0   9  -7 o   1.826      1.831      0.00    0.96738   0.00 
   2  -4  10 o  378.647    353.286    180.00   0.97776   0.08 
   2  -7   9 o  622.557    624.775    180.00   0.96720   0.13 
   3   5   5 o   6.983      7.573     180.00   1.00485   0.00 
   2   9  -5 o  688.287    653.946     0.00    0.97674   0.14 
   6  -6  -5 o  10.071     11.842      0.00    0.99560   0.00 
   0   8   3 o  52.797     61.540     180.00   0.99526   0.01 
   5  -9   2 o   3.389      3.244     180.00   0.97622   0.00 
   5  -9   1 o  61.869     59.395     180.00   0.97601   0.01 
   6  -8  -1 o  15.658     13.632     180.00   0.98569   0.00 
   3  -3  -9 o  116.049    131.102    180.00   0.99454   0.03 
   7  -6   4 o  1144.789   969.620    180.00   0.98497   0.24 
   0   6   6 o  334.021    361.478    180.00   0.99335   0.07 
   8   1  -6 o  23.995     25.899      0.00    0.99318   0.01 
   5   7  -5 o  216.271    182.241    180.00   0.98364   0.05 
   2  -3  10 o  110.976    95.532      0.00    0.98292   0.02 
   4  -7  -5 o  198.849    215.572    180.00   0.99201   0.04 
   4   5   4 o   5.898      6.243     180.00   0.99969   0.00 
   5  -2  -9 o   0.717      0.780      0.00    0.99125   0.00 
   1  -6  10 o  35.939     35.614     180.00   0.96199   0.01 
   7   4  -6 o  163.935    178.915     0.00    0.99105   0.04 
   3   8  -7 o  151.923    150.784    180.00   0.97218   0.03 
   1  -1 -10 o  645.529    700.789     0.00    0.99082   0.14 
   7  -4   5 o   4.820      5.255      0.00    0.99095   0.00 
   6   6  -3 o  689.344    755.437    180.00   0.99074   0.15 
   6   6  -4 o  207.498    225.683    180.00   0.99035   0.04 
   4   0   8 o  18.074     19.740      0.00    0.99035   0.00 
   2   9  -2 o  123.625    109.791     0.00    0.98073   0.03 
   6   6  -5 o  296.031    263.449     0.00    0.98052   0.06 
   7   0  -8 o  923.853    982.359    180.00   0.98945   0.20 
   8  -5  -3 o  19.028     20.316      0.00    0.98941   0.00 
   3  -6   9 o  1339.156   1352.582   180.00   0.97053   0.28 
   1   9   0 o  62.150     55.657      0.00    0.98025   0.01 
   4  -9  -1 o  1028.482   924.133    180.00   0.98013   0.22 
   7   1  -8 o   5.562      5.732      0.00    0.98866   0.00 
   0   9   1 o  1732.816   1568.951   180.00   0.97958   0.36 
   3   3   7 o   0.338      0.410     180.00   0.99647   0.00 
   8  -5   2 o  597.444    608.757     0.00    0.98837   0.13 
   0   4   8 o  148.711    150.485     0.00    0.98816   0.03 
   5   3   5 o  21.139     25.761     180.00   0.99563   0.00 
   1  -3  -9 o  104.895    96.846     180.00   0.98676   0.02 
   8  -2  -6 o  185.052    170.324    180.00   0.98673   0.04 
   2   9  -6 o  37.444     36.949     180.00   0.95759   0.01 
   4   8  -5 o   0.478      0.477      0.00    0.96784   0.00 
   2   1   9 o  100.646    89.711     180.00   0.98627   0.02 
   5  -5  -7 o  14.403     12.888      0.00    0.98632   0.00 
   4   6  -9 o  759.104    760.579    180.00   0.96742   0.16 
   5   0   7 o  60.541     67.708     180.00   0.99423   0.01 
   5  -9   3 o  2209.348   2214.023   180.00   0.96736   0.45 
   2  -2  10 o  387.122    368.764     0.00    0.97673   0.08 
   5   4   4 o  115.042    125.232    180.00   0.99372   0.02 
   7   2  -8 o  190.933    183.434     0.00    0.97646   0.04 
   6  -6   6 o   3.322      3.173     180.00   0.97652   0.00 
   4   8  -4 o  437.807    420.194    180.00   0.97632   0.09 
   1 -10   4 o  76.459     75.354     180.00   0.95651   0.02 
   2   2 -11 o  34.070     34.502      0.00    0.96638   0.01 
   7  -3  -7 o  102.998    85.558      0.00    0.98504   0.02 
   3   8   0 o  282.595    234.332    180.00   0.98490   0.06 
   4  -8   7 o  122.839    120.896    180.00   0.95602   0.02 
   4   8  -3 o  40.830     39.415      0.00    0.97572   0.01 
   7  -2   5 o   0.049      0.053     180.00   0.99282   0.00 
   1   2   9 o  70.490     57.826     180.00   0.98437   0.01 
   1   3 -11 o  244.073    247.990    180.00   0.96566   0.05 
   2  -9   7 o  266.249    262.018     0.00    0.95548   0.05 
   5   7  -6 o  32.333     32.995      0.00    0.96547   0.01 
   8   1   1 o   2.351      2.494      0.00    0.99932   0.00 
   2   3 -11 o  171.401    174.059    180.00   0.96499   0.03 
   1   9  -7 o  1020.707   1004.521    0.00    0.95487   0.20 
   2   5   6 o   0.001      0.002      0.00    0.99149   0.00 
   5   1 -10 o   2.947      2.814     180.00   0.97427   0.00 
   5   7  -2 o  168.117    141.213    180.00   0.98327   0.04 
   1   0  10 o   4.076      3.878      0.00    0.97427   0.00 
   1   2 -11 o  35.580     36.089      0.00    0.96452   0.01 
   8  -3   3 o  714.428    785.732    180.00   0.99126   0.15 
   5  -8  -3 o  31.596     30.060      0.00    0.97419   0.01 
   4  -1 -10 o  671.881    640.928    180.00   0.97387   0.14 
   5   6  -8 o  174.375    176.423     0.00    0.96423   0.04 
   5   5  -9 o   7.792      7.880     180.00   0.96420   0.00 
   2 -10   4 o  658.417    652.739     0.00    0.95385   0.13 
   5  -6  -6 o  359.146    308.376    180.00   0.98242   0.08 
   5   2 -10 o  501.535    485.179    180.00   0.97332   0.10 
   3  -8  -4 o  1795.426   1747.402    0.00    0.97300   0.37 
   7  -5   5 o  350.383    341.979     0.00    0.97294   0.07 
   6   6  -2 o  272.879    234.750     0.00    0.98164   0.06 
   8  -2   3 o  74.223     80.659      0.00    0.98965   0.02 
   3   7  -9 o  42.099     42.595     180.00   0.95262   0.01 
   8  -4   3 o  756.606    657.683    180.00   0.98129   0.16 
   5   6   1 o  882.723    946.376    180.00   0.98922   0.19 
   6  -3  -8 o  1002.433   882.633    180.00   0.98090   0.21 
   7  -6  -4 o  17.146     15.114     180.00   0.98085   0.00 
   2  -5  10 o  1433.107   1416.995    0.00    0.96178   0.29 
   2   4   7 o  412.179    421.593    180.00   0.98828   0.09 
   1 -10   3 o  461.058    456.002     0.00    0.96187   0.09 
   8   0   2 o  58.400     70.788     180.00   0.99543   0.01 
   5   3 -10 o   3.538      3.483     180.00   0.96148   0.00 
   5  -3   8 o  650.631    663.666     0.00    0.97097   0.13 
   2 -10   3 o  670.765    661.752    180.00   0.96145   0.14 
   6   3  -9 o  118.816    121.010    180.00   0.97071   0.02 
   2  -9  -2 o   4.102      4.191     180.00   0.97066   0.00 
   7  -7   3 o  102.545    104.443    180.00   0.97064   0.02 
   4   7   1 o  917.015    835.486     0.00    0.97885   0.19 
   7  -1  -8 o  178.000    162.765     0.00    0.97873   0.04 
   6  -8   4 o  310.353    305.831     0.00    0.96050   0.06 
   2 -10   2 o  89.371     88.151     180.00   0.96037   0.02 
   4  -3  -9 o  15.151     13.915     180.00   0.97843   0.00 
   7   4   0 o  59.104     49.665     180.00   0.98575   0.01 
   3   6   4 o  617.802    523.189    180.00   0.98574   0.13 
   4   7  -8 o  64.012     63.241      0.00    0.95872   0.01 
   4   2   7 o  603.050    488.855    180.00   0.98490   0.13 
   8   3  -4 o  3103.570   2972.932   180.00   0.97684   0.65 
   5  -4   8 o  537.312    536.026    180.00   0.96799   0.11 
   1 -10   2 o  1098.910   1084.819    0.00    0.95850   0.22 
   7  -7  -2 o   0.153      0.146      0.00    0.97659   0.00 
   3  -9  -2 o  17.274     17.411     180.00   0.96684   0.00 
   0  10  -4 o  125.620    123.829    180.00   0.94719   0.02 
   5  -4  -8 o  459.797    443.968     0.00    0.97535   0.10 
   5  -9   0 o   0.575      0.580      0.00    0.96675   0.00 
   8  -6   0 o   2.062      1.990      0.00    0.97535   0.00 
   4   8  -2 o  1691.352   1729.454    0.00    0.96608   0.35 
   2  -8  -4 o  724.780    690.986    180.00   0.97469   0.15 
   1   4 -11 o  10.222     10.058     180.00   0.95608   0.00 
   5   2   6 o  154.576    132.237     0.00    0.98231   0.03 
   3   2 -11 o  547.222    537.265    180.00   0.95591   0.11 
   6  -1  -9 o  20.944     19.900     180.00   0.97409   0.00 
   3   6 -10 o  35.133     33.720      0.00    0.94523   0.01 
   0   7   5 o   0.002      0.002     180.00   0.97348   0.00 
   8   3  -3 o  986.711    855.961    180.00   0.98111   0.21 
   3  -8   8 o  1126.883   1084.769   180.00   0.94501   0.22 
   5   0 -10 o  78.033     79.164      0.00    0.96423   0.02 
   8   2   0 o  667.443    665.402    180.00   0.98775   0.14 
   8  -6  -1 o  94.885     93.464      0.00    0.97267   0.02 
   2   9  -1 o  78.917     79.749     180.00   0.96387   0.02 
   8   2  -6 o  14.178     14.126      0.00    0.97241   0.00 
   6   5   1 o   7.300      6.530      0.00    0.98024   0.00 
   0   3 -11 o  80.698     79.605     180.00   0.95406   0.02 
   6   0   6 o  1081.661   968.120     0.00    0.98019   0.23 
   9  -2  -2 o  575.812    515.310    180.00   0.98020   0.12 
   6  -8  -2 o  125.754    126.290    180.00   0.96333   0.03 
   2   6   5 o  48.181     43.532      0.00    0.97963   0.01 
   0   8  -9 o  11.011     10.812      0.00    0.94330   0.00 
   9  -1  -2 o  744.029    674.654     0.00    0.97928   0.16 
   2   4 -11 o  559.653    562.898     0.00    0.95299   0.11 
   5  -7   7 o  580.049    582.815    180.00   0.95305   0.12 
   6   6  -6 o  178.615    176.488     0.00    0.96206   0.04 
   1 -10   5 o  101.064    99.801     180.00   0.94285   0.02 
   1  -9  -2 o  49.539     48.839     180.00   0.96194   0.01 
   6  -7  -4 o  159.116    163.159     0.00    0.97058   0.03 
   0   1  10 o  629.831    645.134    180.00   0.97031   0.13 
   4  -3   9 o  193.304    190.178    180.00   0.96163   0.04 
   3   3 -11 o   6.280      6.421     180.00   0.95212   0.00 
   9  -2  -1 o  149.606    137.110    180.00   0.97809   0.03 
   6   5  -8 o  873.542    900.753     0.00    0.95183   0.17 
   7   5  -3 o  140.538    144.148    180.00   0.96952   0.03 
   4  -7   8 o  874.131    896.086    180.00   0.95144   0.17 
   4   5 -10 o   1.734      1.782      0.00    0.95117   0.00 
   8  -4  -5 o  1460.495   1487.551   180.00   0.96931   0.30 
   3   0   9 o  25.201     25.534     180.00   0.96916   0.01 
   6  -4   7 o  55.716     54.848      0.00    0.96037   0.01 
   4   8  -6 o  26.937     27.774      0.00    0.95097   0.01 
   5  -8   6 o  119.353    122.593    180.00   0.95106   0.02 
   5   5   3 o  902.316    867.512     0.00    0.97683   0.19 
   8  -6   1 o  362.545    365.359     0.00    0.96893   0.07 
   7   5  -4 o  243.301    243.705    180.00   0.96869   0.05 
   8  -1   3 o  58.048     56.272     180.00   0.97662   0.01 
   0   2 -11 o   5.577      5.751     180.00   0.95055   0.00 
   7  -1   5 o  78.971     76.681     180.00   0.97647   0.02 
   2  -1  10 o  26.002     25.740     180.00   0.95982   0.01 
   7   4  -7 o  1262.961   1251.099    0.00    0.95982   0.25 
   2 -10   1 o   1.776      1.830     180.00   0.95069   0.00 
   8   3  -2 o  18.230     17.946      0.00    0.97611   0.00 
   0  10  -3 o  26.548     27.299      0.00    0.95017   0.01 
   5  -9   4 o  72.563     74.515     180.00   0.95015   0.01 
   3 -10   2 o  132.389    136.088    180.00   0.95014   0.03 
   4  -4   9 o  101.512    100.390     0.00    0.95900   0.02 
   4  -8  -4 o  414.506    409.853    180.00   0.95887   0.08 
   9  -1  -3 o  1290.688   1242.342    0.00    0.97507   0.27 
   3 -10   4 o  2238.058   2209.194   180.00   0.93950   0.43 
   3 -10   3 o  165.979    169.463    180.00   0.94897   0.03 
   4   6   3 o  188.124    175.736     0.00    0.97434   0.04 
   9  -1  -1 o   0.277      0.258      0.00    0.97429   0.00 
   1   8  -9 o   5.697      5.662     180.00   0.93821   0.00 
   2 -10   5 o  732.555    728.490     0.00    0.93816   0.14 
   2   1 -11 o  566.244    558.836    180.00   0.95703   0.11 
   7   2   3 o  512.193    458.803     0.00    0.98022   0.11 
   9  -2  -3 o  120.795    116.542     0.00    0.97310   0.03 
   0   4 -11 o  13.025     12.841     180.00   0.94721   0.00 
   5   7  -1 o  540.395    555.740     0.00    0.96490   0.11 
   1  -8   9 o  138.269    137.347     0.00    0.93686   0.03 
   1   5 -11 o   3.533      3.509      0.00    0.93672   0.00 
   1 -10   1 o  318.195    308.913     0.00    0.94667   0.06 
   7   1   4 o  1417.614   1443.678   180.00   0.97210   0.29 
   4  -9   6 o  217.925    216.453    180.00   0.93665   0.04 
   2  -6  10 o   8.297      8.242     180.00   0.93650   0.00 
   5  -7  -5 o  1481.623   1504.829    0.00    0.96417   0.30 
   3   8  -8 o  1586.266   1576.421   180.00   0.93620   0.30 
   6   6  -1 o  81.788     82.818      0.00    0.96382   0.02 
   0   3   9 o  14.400     14.559     180.00   0.96378   0.00 
   2   8   2 o  888.653    899.558     0.00    0.96386   0.18 
   4  -5   9 o  127.185    122.139     0.00    0.94602   0.02 
   8   3  -5 o  35.275     35.629     180.00   0.96367   0.01 
   3  -2 -10 o  15.105     14.700     180.00   0.95510   0.00 
   1  -8  -4 o  13.211     13.345     180.00   0.96373   0.00 
   6  -3   7 o  546.480    550.444     0.00    0.96355   0.11 
   0  10  -5 o  243.624    242.231     0.00    0.93604   0.05 
   5  -2   8 o  63.036     63.101      0.00    0.96303   0.01 
   5  -5   8 o  234.605    230.142    180.00   0.95439   0.05 
   0   7 -10 o   2.911      2.904     180.00   0.93528   0.00 
   9  -3  -1 o  344.347    356.585     0.00    0.97072   0.07 
   7   3  -8 o  71.881     70.411     180.00   0.95406   0.01 
   2   3   8 o  842.095    870.195     0.00    0.97041   0.17 
   3   2   8 o  143.926    148.609    180.00   0.97010   0.03 
   8  -3  -6 o  18.876     18.724      0.00    0.96238   0.00 
   0  10  -2 o  47.006     44.868      0.00    0.94473   0.01 
   1   7 -10 o   3.102      3.104     180.00   0.93470   0.00 
   4  -2   9 o  654.818    647.362     0.00    0.95365   0.13 
   9  -3  -2 o  102.852    106.327    180.00   0.96993   0.02 
   8  -5  -4 o  926.744    914.127     0.00    0.96209   0.19 
   3  -7   9 o  126.838    127.235    180.00   0.93433   0.02 
   8   0  -7 o  648.226    635.239     0.00    0.96175   0.13 
   7   5  -2 o  665.082    645.157    180.00   0.96145   0.13 
   1   1 -11 o  1311.436   1327.572    0.00    0.95279   0.26 
   6   4  -9 o  310.826    304.745     0.00    0.94350   0.06 
   6   3   4 o  55.748     56.115      0.00    0.96885   0.01 
   8  -6  -2 o  137.877    134.553    180.00   0.96113   0.03 
   8  -5   3 o  17.147     16.778      0.00    0.96075   0.00 
   3   9  -4 o  57.296     56.809      0.00    0.94292   0.01 
   1   8   3 o  779.733    763.882     0.00    0.96053   0.16 
   3 -10   1 o  67.885     67.209      0.00    0.94292   0.01 
   3  -9   7 o   5.074      5.079     180.00   0.93237   0.00 
   9   0  -2 o   5.665      5.602      0.00    0.96727   0.00 
   3   9  -3 o  291.832    290.742     0.00    0.94194   0.06 
   4  -9  -2 o  19.688     20.389      0.00    0.95093   0.00 
   9  -2   0 o  115.746    116.333    180.00   0.96693   0.02 
   7   5  -5 o  368.201    364.805    180.00   0.95902   0.07 
   7   3   2 o  36.658     33.904     180.00   0.97371   0.01 
   2   5 -11 o  49.177     48.983      0.00    0.93154   0.01 
   2   9  -7 o  98.309     97.788     180.00   0.93143   0.02 
   9   0  -3 o  446.672    463.448    180.00   0.96600   0.09 
   0   5 -11 o   8.348      8.224      0.00    0.93062   0.00 
   2  -2 -10 o  32.501     32.005      0.00    0.95785   0.01 
   3   1 -11 o  76.486     78.720     180.00   0.94925   0.02 
   7  -2  -8 o  272.634    268.730    180.00   0.95759   0.05 
   5   7  -7 o  163.479    160.756     0.00    0.93996   0.03 
   5   4 -10 o  103.142    101.493     0.00    0.93989   0.02 
   5  -9  -1 o  52.704     54.307      0.00    0.94918   0.01 
   8  -1  -7 o  271.930    269.022     0.00    0.95705   0.05 
   1   6   6 o  18.237     18.076      0.00    0.95693   0.00 
   1   9   1 o  38.256     39.327     180.00   0.94842   0.01 
   4   8  -1 o   8.624      8.838     180.00   0.94819   0.00 
   6  -7   6 o  244.673    242.481     0.00    0.93892   0.05 
   6  -2   7 o  787.487    771.920    180.00   0.95605   0.16 
   3  -6  -7 o  36.259     35.532     180.00   0.95603   0.01 
   8   1  -7 o  1117.757   1092.069   180.00   0.95582   0.22 
   3   4 -11 o  61.136     60.841     180.00   0.93827   0.01 
   2  -6  -7 o  99.265     96.872     180.00   0.95575   0.02 
   0   9  -8 o   4.142      3.964     180.00   0.92816   0.00 
   6  -5   7 o   0.612      0.596     180.00   0.94682   0.00 
   6   2   5 o  127.160    127.233    180.00   0.96274   0.03 
   9  -3   0 o  523.428    521.376     0.00    0.96257   0.11 
   8   3  -1 o  82.924     82.108      0.00    0.96226   0.02 
   9  -1  -4 o  31.571     31.011     180.00   0.96199   0.01 
   2   7   4 o  194.345    187.811    180.00   0.95422   0.04 
   3  -5  -8 o  1391.078   1355.517    0.00    0.95408   0.28 
   1   5   7 o  863.862    843.437     0.00    0.96171   0.17 
   2  -5  -8 o  509.210    496.617    180.00   0.95399   0.10 
   1  10  -4 o  567.571    530.158    180.00   0.92691   0.11 
   6   6  -7 o  135.426    134.288     0.00    0.93639   0.03 
   8  -6   2 o  223.402    219.029     0.00    0.95395   0.04 
   7  -6   5 o  459.375    435.006    180.00   0.94551   0.09 
   3   7   3 o  137.194    134.009     0.00    0.95375   0.03 
   1  -9   8 o  75.626     70.127      0.00    0.92628   0.01 
   6   4   3 o  256.482    246.921    180.00   0.96083   0.05 
   3   9  -5 o  588.612    585.798    180.00   0.93570   0.11 
   9  -1   0 o   1.274      1.242      0.00    0.96049   0.00 
   1   4   8 o   2.886      2.958      0.00    0.95267   0.00 
   5  -1 -10 o  250.290    239.851     0.00    0.94419   0.05 
   9  -3  -3 o   7.821      7.695     180.00   0.96028   0.00 
   3  -4  10 o  249.118    249.948     0.00    0.93471   0.05 
   9   0  -1 o  67.590     67.882      0.00    0.95970   0.01 
   4   1   8 o  622.174    652.560     0.00    0.95180   0.12 
   7  -7   4 o  88.385     86.531      0.00    0.94354   0.02 
   4   2 -11 o  244.640    246.401     0.00    0.93426   0.05 
   1  -7  10 o  1099.138   1003.628   180.00   0.92471   0.21 
   7  -7  -3 o  1479.005   1538.286   180.00   0.95121   0.29 
   5  -3  -9 o  750.938    780.556    180.00   0.95093   0.15 
   3   8   1 o  47.046     49.009      0.00    0.95085   0.01 
   2 -10   0 o  144.885    146.239    180.00   0.93316   0.03 
   2   7 -10 o  11.140     10.518     180.00   0.92303   0.00 
   0   9   2 o  109.735    109.325    180.00   0.94166   0.02 
   9  -2  -4 o  25.073     24.780      0.00    0.95736   0.01 
   7  -5  -6 o  36.845     38.222      0.00    0.94976   0.01 
   7   5  -6 o  86.968     86.174      0.00    0.94129   0.02 
   8  -3   4 o  1602.168   1670.487   180.00   0.94932   0.32 
   3 -10   5 o  742.228    714.684    180.00   0.92246   0.14 
   4  -2 -10 o  1264.336   1242.557    0.00    0.94061   0.24 
   2   8  -9 o  38.640     37.572     180.00   0.92215   0.01 
   1  -3  11 o  597.886    596.382     0.00    0.93147   0.11 
   1  -2 -10 o  231.262    238.674    180.00   0.94858   0.05 
   5  -6   8 o   5.145      5.129      0.00    0.93144   0.00 
   1 -10   6 o  15.868     15.529      0.00    0.92192   0.00 
   8   1   2 o  44.378     44.510      0.00    0.96286   0.01 
   9   0  -4 o  66.681     65.225     180.00   0.95598   0.01 
   0  10  -1 o  114.810    114.382     0.00    0.93130   0.02 
   6  -2  -9 o   6.268      6.399     180.00   0.94816   0.00 
   5   1   7 o  451.207    437.522     0.00    0.95550   0.09 
   7  -8   1 o  228.676    224.580    180.00   0.93979   0.04 
   6  -8   5 o  45.484     44.947      0.00    0.93083   0.01 
   2   9   0 o  143.511    140.768    180.00   0.93955   0.03 
   3   9  -6 o  148.431    148.961    180.00   0.92084   0.03 
   6  -9   1 o  390.453    380.749     0.00    0.92975   0.07 
   6  -5  -7 o  47.350     45.471     180.00   0.94658   0.01 
   7  -8   0 o  1789.199   1787.942   180.00   0.93828   0.35 
   2   0 -11 o  45.133     45.086     180.00   0.93785   0.01 
   2  -8   9 o  11.410     11.533      0.00    0.91958   0.00 
   8   0   3 o  441.762    434.701    180.00   0.95346   0.09 
   7   4   1 o  22.376     22.059     180.00   0.95342   0.00 
   4 -10   2 o  38.992     37.680     180.00   0.92892   0.01 
   4   3 -11 o  17.357     16.690     180.00   0.92847   0.00 
   1   9  -8 o  311.695    316.286     0.00    0.91910   0.06 
   0   1 -11 o  22.634     22.468      0.00    0.93699   0.00 
   9  -4  -1 o  414.860    420.978    180.00   0.95291   0.08 
   7  -4  -7 o  525.510    489.936    180.00   0.94525   0.10 
   3  -3  10 o  477.802    474.197    180.00   0.93690   0.09 
   5  -1   8 o  51.558     48.090     180.00   0.94494   0.01 
   1  10  -5 o  1026.898   1049.201   180.00   0.91844   0.19 
   3 -10   0 o  47.307     45.122      0.00    0.92787   0.01 
   6  -9   2 o  254.288    242.421     0.00    0.92786   0.05 
   1  10  -3 o  337.065    319.909    180.00   0.92762   0.06 
   1  -4  11 o  520.289    490.691     0.00    0.92732   0.10 
   3  -7  -6 o  214.270    202.200     0.00    0.94447   0.04 
   4  -6  -7 o  113.116    106.960    180.00   0.94442   0.02 
   1 -10   0 o  290.268    273.409     0.00    0.92728   0.05 
   8   2   1 o  26.362     25.694     180.00   0.95841   0.01 
   4   8  -7 o   0.089      0.083      0.00    0.92698   0.00 
   2  -7  -6 o   9.918      9.528     180.00   0.94402   0.00 
   0  10  -6 o   3.457      3.551      0.00    0.91754   0.00 
   1  -6  -7 o  184.723    181.049     0.00    0.94361   0.04 
   6  -6  -6 o  50.805     50.306      0.00    0.94332   0.01 
   8  -4   4 o  214.669    213.994     0.00    0.94316   0.04 
   7   0   5 o   5.897      6.137     180.00   0.95039   0.00 
   5  -9   5 o  442.595    405.210     0.00    0.92589   0.08 
   8   3  -6 o  371.431    374.548     0.00    0.94263   0.07 
   4 -10   3 o   2.441      2.227     180.00   0.92576   0.00 
   4   7  -9 o  58.793     60.955     180.00   0.91605   0.01 
   4  -5  -8 o  638.050    641.905    180.00   0.94235   0.12 
   6  -8  -3 o  64.848     65.586     180.00   0.93427   0.01 
   8  -2  -7 o   1.189      1.197      0.00    0.94217   0.00 
   1  -5  -8 o   0.159      0.160      0.00    0.94210   0.00 
   3   5 -11 o  252.581    261.161     0.00    0.91561   0.05 
   9  -4  -2 o  218.700    227.893    180.00   0.94949   0.04 
   5  -8  -4 o  43.683     44.278     180.00   0.93384   0.01 
   2 -10   6 o  147.121    151.657     0.00    0.91554   0.03 
   8  -6  -3 o  102.582    102.282    180.00   0.94163   0.02 
   7   1  -9 o  61.823     62.610     180.00   0.93309   0.01 
   0   8   4 o  22.522     22.359      0.00    0.94137   0.00 
   7  -8   2 o  273.860    276.592    180.00   0.93317   0.05 
   4 -10   4 o  17.733     18.234      0.00    0.91498   0.00 
   6  -6   7 o  631.463    568.226    180.00   0.92417   0.12 
   3   0 -11 o  1144.438   1156.623    0.00    0.93279   0.22 
   4 -10   1 o  23.600     21.294     180.00   0.92421   0.00 
   3   9  -2 o  34.555     34.967     180.00   0.93284   0.01 
   7  -6  -5 o  100.043    98.645     180.00   0.94096   0.02 
   4  -6   9 o  765.527    699.435     0.00    0.92390   0.14 
   7  -3   6 o  78.183     76.596     180.00   0.94046   0.02 
   9  -4   0 o  18.846     19.093      0.00    0.94783   0.00 
   2   2   9 o   0.901      0.879      0.00    0.94014   0.00 
   1  -5  11 o  76.514     78.158     180.00   0.91388   0.01 
   9  -2   1 o  718.152    719.809    180.00   0.94763   0.14 
   8   2  -7 o  203.362    198.609    180.00   0.93983   0.04 
   4   6 -10 o  418.513    427.685    180.00   0.91356   0.08 
   2  -9   8 o  32.568     33.225      0.00    0.91366   0.01 
   3  -5  10 o  268.825    254.125    180.00   0.92292   0.05 
   1   0 -11 o  110.784    111.038     0.00    0.93158   0.02 
   5   6   2 o  241.010    234.874    180.00   0.94714   0.05 
   8  -6   3 o  214.258    214.986     0.00    0.93154   0.04 
   1   1  10 o  735.005    723.107     0.00    0.93932   0.14 
   7   0  -9 o  574.972    573.600    180.00   0.93123   0.11 
   9   1  -3 o  604.153    579.836    180.00   0.94678   0.12 
   5   7   0 o   0.220      0.216      0.00    0.93922   0.00 
   2  -4  -9 o  704.604    698.797     0.00    0.93895   0.14 
   1   7   5 o  58.101     57.660     180.00   0.93895   0.01 
   3  -4  -9 o  731.208    726.980    180.00   0.93885   0.14 
   9  -3   1 o  673.050    633.202     0.00    0.94614   0.13 
   6  -1   7 o  254.626    255.429    180.00   0.93859   0.05 
   4   1 -11 o  1687.504   1657.006    0.00    0.93029   0.32 
   9   1  -2 o  845.841    771.994    180.00   0.94534   0.17 
   2  -9  -3 o  12.856     12.562      0.00    0.92993   0.00 
   8  -2   4 o  56.969     52.497     180.00   0.94527   0.01 
   9  -4  -3 o   0.261      0.263     180.00   0.93786   0.00 
   7   5  -1 o  265.810    243.210     0.00    0.94513   0.05 
   4   7   2 o   6.154      6.178      0.00    0.93759   0.00 
   3  -2  10 o  279.230    270.905     0.00    0.92927   0.05 
   5   6  -9 o  1959.059   1975.800    0.00    0.92045   0.36 
   7  -4   6 o  32.744     32.566      0.00    0.93726   0.01 
   1  10  -2 o  50.319     50.827     180.00   0.92053   0.01 
   6   1 -10 o  10.945     10.546      0.00    0.92855   0.00 
   6  -4  -8 o  230.687    228.195     0.00    0.93669   0.04 
   7  -8  -1 o  61.980     59.856     180.00   0.92877   0.01 
   3  -9  -3 o  422.722    407.822    180.00   0.92864   0.08 
   9   0   0 o  649.518    626.547     0.00    0.94388   0.13 
   6   1   6 o  441.700    443.046    180.00   0.94327   0.09 
   4  -1   9 o  368.506    365.687     0.00    0.93583   0.07 
   7  -8   3 o  99.605     101.630     0.00    0.91893   0.02 
   1   6 -11 o  67.569     65.228     180.00   0.90930   0.01 
   8  -7   0 o  50.290     47.413     180.00   0.92730   0.01 
   9  -3  -4 o  14.456     14.661      0.00    0.94253   0.00 
   5  -8   7 o  37.111     35.663     180.00   0.90904   0.01 
   6  -9   3 o  543.373    557.012     0.00    0.91823   0.10 
   9  -4   1 o  569.019    575.655     0.00    0.93467   0.11 
   9  -2  -5 o   8.879      9.048     180.00   0.93420   0.00 
   1  -2  11 o  358.345    325.846    180.00   0.92596   0.07 
   2   0  10 o  18.340     18.594     180.00   0.93379   0.00 
   9  -1  -5 o  447.704    441.905    180.00   0.94108   0.09 
   7  -2   6 o  487.235    495.835     0.00    0.93373   0.09 
   4  -8   8 o  701.603    669.106    180.00   0.90787   0.13 
   6   2 -10 o   4.043      3.627     180.00   0.92550   0.00 
   4  -7  -6 o  62.214     63.131      0.00    0.93345   0.01 
   7   2  -9 o  196.898    174.848     0.00    0.92526   0.04 
   8   3   0 o  566.740    553.224     0.00    0.94066   0.11 
   3   1   9 o  457.212    464.834     0.00    0.93270   0.09 
   8   4  -3 o   0.472      0.481      0.00    0.93270   0.00 
   9   1  -4 o  56.469     54.702      0.00    0.93992   0.01 
   5  -9  -2 o  388.767    344.602    180.00   0.92463   0.07 
   6   5   2 o  114.545    110.458    180.00   0.93968   0.02 
   7  -5   6 o  183.088    162.119    180.00   0.92442   0.03 
   1  -7  -6 o  575.736    585.426     0.00    0.93213   0.11 
   8  -7   1 o   5.844      5.178     180.00   0.92423   0.00 
   4   4   6 o  223.750    218.938     0.00    0.93925   0.04 
   9  -1   1 o  944.082    935.880    180.00   0.93898   0.18 
   0   6 -11 o   4.357      4.140      0.00    0.90579   0.00 
   8   4  -4 o   0.224      0.226     180.00   0.93153   0.00 
   6  -9   0 o  175.217    158.782    180.00   0.92376   0.03 
   7   4  -8 o  136.356    124.138    180.00   0.92349   0.03 
   6   6   0 o  509.379    512.219     0.00    0.93866   0.10 
   1   3   9 o  514.986    511.158    180.00   0.93094   0.10 
   9   0  -5 o  73.236     74.183      0.00    0.93801   0.01 
   8  -7  -1 o  119.323    114.952    180.00   0.92255   0.02 
   4   4 -11 o  42.604     43.577      0.00    0.91346   0.01 
   6   0 -10 o  57.639     56.901     180.00   0.92204   0.01 
   8  -4  -6 o   1.066      1.041     180.00   0.92989   0.00 
   6   3 -10 o  625.412    642.649    180.00   0.91315   0.11 
   2  -7  10 o  161.703    157.765    180.00   0.90407   0.03 
   8  -5  -5 o  160.550    155.321    180.00   0.92889   0.03 
   4   5   5 o   0.741      0.730      0.00    0.93604   0.00 
   3  -8  -5 o  35.259     35.808     180.00   0.92081   0.01 
   9   1  -1 o  343.552    339.184    180.00   0.93571   0.07 
   1  10  -6 o  670.466    663.563     0.00    0.90285   0.12 
   0   2  10 o  687.144    661.022     0.00    0.92828   0.13 
   4 -10   0 o   8.671      8.899      0.00    0.91198   0.00 
   3  -6  10 o  667.245    661.814    180.00   0.90256   0.12 
   2   6 -11 o   4.291      4.255     180.00   0.90248   0.00 
   1  -9  -3 o  631.530    642.023     0.00    0.92023   0.12 
   7  -3  -8 o  65.058     62.378      0.00    0.92799   0.01 
   1  -4  -9 o  35.144     33.606     180.00   0.92778   0.01 
   7  -1  -9 o  1082.600   1102.333    0.00    0.91985   0.20 
   4  -4  -9 o  114.745    108.869     0.00    0.92749   0.02 
   8  -5   4 o  215.066    203.061    180.00   0.92734   0.04 
   6  -7  -5 o  266.405    251.270    180.00   0.92730   0.05 
   0  10   0 o  226.910    224.973     0.00    0.91086   0.04 
   3   5   6 o  14.607     14.922     180.00   0.93427   0.00 
   3   7 -10 o  20.004     19.889      0.00    0.90146   0.00 
   5   5 -10 o  252.885    248.141     0.00    0.91046   0.05 
   6   7  -4 o  214.574    220.041    180.00   0.91860   0.04 
   9  -5  -1 o   2.503      2.273      0.00    0.92631   0.00 
   4  -9   7 o   7.127      7.075      0.00    0.90057   0.00 
   6   5  -9 o  209.368    200.813     0.00    0.90925   0.04 
   2   9  -8 o  224.287    222.492     0.00    0.90002   0.04 
   9   1  -5 o  150.188    130.487    180.00   0.92527   0.03 
   5   7  -8 o  92.294     88.288     180.00   0.90887   0.02 
   2 -10  -1 o  262.283    250.565     0.00    0.90905   0.05 
   5   8  -5 o  692.349    658.667     0.00    0.90859   0.13 
   4   0 -11 o  121.936    126.899    180.00   0.91695   0.02 
   3   9  -7 o   4.176      4.143      0.00    0.89938   0.00 
   7   5  -7 o  91.340     95.456      0.00    0.91680   0.02 
   3   4   7 o  254.161    258.554     0.00    0.93176   0.05 
   5   4   5 o  2206.385   2239.339   180.00   0.93155   0.42 
   6   7  -3 o  872.265    919.998    180.00   0.91650   0.16 
   3 -10   6 o   0.568      0.565      0.00    0.89904   0.00 
   4  -9  -3 o  608.463    637.614     0.00    0.91650   0.11 
   8  -1   4 o  91.777     92.378      0.00    0.93137   0.02 
   3   9  -1 o  348.587    366.560     0.00    0.91630   0.06 
   9  -5   0 o  86.058     75.197      0.00    0.92409   0.02 
   5  -2 -10 o   0.008      0.009     180.00   0.91593   0.00 
   4   8   0 o  143.684    130.011    180.00   0.92338   0.03 
   8   3  -7 o   1.239      1.289      0.00    0.91524   0.00 
   4   8  -8 o  248.173    250.885     0.00    0.89749   0.04 
   8   4  -5 o  268.103    260.042     0.00    0.92252   0.05 
   0   0  11 o  688.944    707.192    180.00   0.91464   0.13 
   4   3   7 o  15.486     15.043      0.00    0.92961   0.00 
   4 -10   5 o   9.474      9.560     180.00   0.89734   0.00 
   1  10  -1 o  682.752    639.651     0.00    0.90616   0.12 
   3 -10  -1 o  99.436     93.226     180.00   0.90608   0.02 
   5  -6  -7 o   5.045      4.987     180.00   0.92215   0.00 
   3   8  -9 o  123.135    124.159    180.00   0.89672   0.02 
   7   2   4 o  236.880    229.187     0.00    0.92904   0.04 
   7   3   3 o  53.185     51.460      0.00    0.92888   0.01 
   6   6  -8 o  238.993    226.457     0.00    0.90524   0.04 
   5   8  -4 o  436.510    446.132     0.00    0.91362   0.08 
   5  -9   6 o   0.000      0.000      0.00    0.89619   0.00 
   8  -7   2 o  38.792     39.680     180.00   0.91355   0.01 
   0   9  -9 o  78.958     76.981      0.00    0.88639   0.01 
   6   7  -5 o  231.641    238.984    180.00   0.91309   0.04 
   0   6   7 o  478.603    488.384    180.00   0.92090   0.09 
   9  -5  -2 o  265.384    270.313     0.00    0.92074   0.05 
   5   3   6 o  292.029    280.473     0.00    0.92768   0.06 
   3  -1  10 o   6.906      7.190      0.00    0.91253   0.00 
   1 -10   7 o  116.119    115.453     0.00    0.89515   0.02 
   2  -8  -5 o  117.575    119.654    180.00   0.92021   0.02 
   5  -5  -8 o  125.701    127.995     0.00    0.92005   0.02 
   5   2 -11 o  704.464    695.169    180.00   0.90361   0.13 
   7  -7  -4 o  157.264    160.119    180.00   0.91992   0.03 
   0   5   8 o   4.324      4.413      0.00    0.91967   0.00 
   1   9   2 o  288.449    300.439    180.00   0.91192   0.05 
   4  -7   9 o  46.382     45.827     180.00   0.89450   0.01 
   7  -8  -2 o  508.453    526.292     0.00    0.91195   0.09 
   1  -1  11 o  189.632    191.232     0.00    0.91129   0.03 
   5   8  -3 o   2.015      2.025      0.00    0.91116   0.00 
   8   4  -2 o  56.343     50.040      0.00    0.92592   0.01 
   9  -4  -4 o  119.718    122.585    180.00   0.91888   0.02 
   7  -7   5 o  25.821     25.759      0.00    0.91103   0.00 
   8  -3  -7 o  15.636     16.068     180.00   0.91848   0.00 
   5   0   8 o  851.615    876.660    180.00   0.91836   0.16 
   4  -8  -5 o  86.594     85.300     180.00   0.91075   0.02 
   2  -1 -11 o  31.085     30.445     180.00   0.91054   0.01 
   2   8   3 o  118.831    122.420     0.00    0.91828   0.02 
   3  -8   9 o   0.012      0.012     180.00   0.89318   0.00 
   9  -3  -5 o  242.842    250.994     0.00    0.91799   0.04 
   0  10  -7 o   3.824      3.704     180.00   0.89298   0.00 
   6  -9  -1 o  742.376    724.306    180.00   0.91035   0.14 
   8  -7  -2 o   0.562      0.546     180.00   0.91033   0.00 
   8   0  -8 o  138.817    144.077     0.00    0.91751   0.03 
   6  -9   4 o  114.218    113.775    180.00   0.90157   0.02 
   1  -6  11 o  310.299    296.692    180.00   0.89232   0.05 
   5  -7   8 o  527.740    525.006     0.00    0.90113   0.09 
   2   9   1 o  65.493     62.590     180.00   0.90946   0.01 
   3   6   5 o  36.612     31.389      0.00    0.92415   0.01 
   2  10  -5 o  291.134    274.707     0.00    0.89181   0.05 
   6   7  -6 o  10.994     10.911      0.00    0.90039   0.00 
   3  -9   8 o   0.063      0.060      0.00    0.89155   0.00 
   7   3  -9 o   8.820      8.378     180.00   0.90846   0.00 
   2  -3  11 o  146.360    145.129    180.00   0.90013   0.03 
   5   5   4 o  443.861    417.526     0.00    0.92288   0.08 
   3  -1 -11 o  226.564    214.705    180.00   0.90801   0.04 
   9  -3   2 o  15.162     14.552      0.00    0.92267   0.00 
   8  -6  -4 o  1146.768   1204.747    0.00    0.91559   0.21 
   4   5 -11 o  88.117     80.328      0.00    0.89052   0.02 
   8   1   3 o  54.367     54.658      0.00    0.92228   0.01 
   0   8 -10 o  267.697    245.010     0.00    0.89024   0.05 
   6  -3  -9 o  237.545    244.626    180.00   0.91483   0.04 
   8   1  -8 o  1329.785   1366.317   180.00   0.91472   0.24 
   7   5   0 o  15.584     16.024      0.00    0.92178   0.00 
   5 -10   2 o   4.982      4.957      0.00    0.89882   0.00 
   9  -2   2 o  33.554     34.480     180.00   0.92160   0.01 
   2  -4  11 o  1255.704   1255.755   180.00   0.89841   0.22 
   9  -4   2 o  48.574     49.464     180.00   0.91438   0.01 
   6  -1 -10 o  55.296     51.743      0.00    0.90655   0.01 
   9  -5   1 o  191.907    195.307    180.00   0.91424   0.04 
   9   0   1 o  52.480     54.071     180.00   0.92100   0.01 
   7  -8   4 o  648.622    652.627     0.00    0.89808   0.11 
   9  -1  -6 o  180.467    182.935    180.00   0.91385   0.03 
   2  10  -4 o  103.666    104.846     0.00    0.89768   0.02 
   2   6   6 o  443.035    451.212    180.00   0.91350   0.08 
   9   0  -6 o  34.132     34.941      0.00    0.91339   0.01 
   4   6   4 o  150.912    154.085     0.00    0.92036   0.03 
   1   8 -10 o  273.068    256.706     0.00    0.88777   0.05 
   2  -3 -10 o  41.443     43.383     180.00   0.91243   0.01 
   3   8   2 o  161.637    170.910     0.00    0.91250   0.03 
   5   8  -6 o  44.223     44.793      0.00    0.89645   0.01 
   5   3 -11 o  127.577    128.866    180.00   0.89635   0.02 
   6  -8   6 o  184.315    186.187     0.00    0.89654   0.03 
   2  10  -3 o  148.586    150.402    180.00   0.89645   0.03 
   3  -3 -10 o   0.097      0.101      0.00    0.91217   0.00 
   9   2  -3 o   2.964      3.032      0.00    0.91916   0.00 
   5 -10   1 o   0.179      0.181     180.00   0.89641   0.00 
   2 -10   7 o  30.953     29.292      0.00    0.88749   0.01 
   5  -7  -6 o  368.118    384.965     0.00    0.91210   0.07 
   9   1   0 o   1.935      1.990     180.00   0.91861   0.00 
   8  -1  -8 o   0.559      0.559     180.00   0.91106   0.00 
   2   5   7 o  192.924    199.883    180.00   0.91782   0.04 
   8  -6   4 o   0.199      0.198     180.00   0.90328   0.00 
   7  -1   6 o  16.948     17.583      0.00    0.91768   0.00 
   3   6 -11 o  1545.989   1528.198   180.00   0.88601   0.27 
   8   2  -8 o  533.206    531.753     0.00    0.90296   0.10 
   7  -6   6 o  98.913     98.236     180.00   0.90308   0.02 
   8   2   2 o  131.978    113.724     0.00    0.92365   0.02 
   1  -1 -11 o  99.293     98.949      0.00    0.90272   0.02 
   2   4   8 o   4.985      4.781      0.00    0.91012   0.00 
   6  -7   7 o   8.915      8.797      0.00    0.89432   0.00 
   0   7   6 o  38.650     37.117      0.00    0.91006   0.01 
   7   6  -5 o   6.180      6.181     180.00   0.90237   0.00 
   3   3   8 o  552.565    581.038    180.00   0.91691   0.10 
   7   1   5 o  102.316    108.085    180.00   0.91686   0.02 
   4   0   9 o  272.282    260.919    180.00   0.90976   0.05 
   1   8   4 o  201.612    193.180     0.00    0.90986   0.04 
   5   1 -11 o  159.158    158.863    180.00   0.90208   0.03 
   5 -10   3 o  337.367    332.071    180.00   0.89411   0.06 
   4   9  -4 o   0.306      0.301      0.00    0.89386   0.00 
   7   4   2 o  44.706     48.185      0.00    0.91637   0.01 
   4  -3 -10 o  96.097     96.266      0.00    0.90158   0.02 
   1 -10  -1 o  257.666    257.611    180.00   0.90171   0.05 
   1  -8  -5 o  518.020    491.862    180.00   0.90903   0.09 
   5   8  -2 o  1262.565   1264.976   180.00   0.90140   0.23 
   4 -10  -1 o  229.629    224.058    180.00   0.89310   0.04 
   9   2  -2 o  33.617     35.667      0.00    0.91545   0.01 
   6   4 -10 o  256.618    247.524     0.00    0.89259   0.04 
   9   2  -4 o  320.137    335.384     0.00    0.91525   0.06 
   7   6  -4 o   3.456      3.266     180.00   0.90807   0.00 
   0   9   3 o  227.351    225.883    180.00   0.90053   0.04 
   5   7   1 o  594.268    560.307    180.00   0.90800   0.11 
   6  -8  -4 o  112.789    111.919    180.00   0.90038   0.02 
   9  -5  -3 o  95.804     90.453      0.00    0.90778   0.02 
   7  -2  -9 o  342.279    338.492     0.00    0.89996   0.06 
   5  -3   9 o  76.334     75.474     180.00   0.89953   0.01 
   5  -4   9 o  288.279    285.362    180.00   0.89942   0.05 
   6   7  -2 o  633.816    594.457    180.00   0.90695   0.11 
   4   9  -3 o   3.408      3.138     180.00   0.89119   0.00 
   0   4   9 o   0.980      0.911     180.00   0.90650   0.00 
   7   6  -3 o  626.332    580.352     0.00    0.90643   0.11 
   6  -3   8 o  72.260     71.590      0.00    0.89887   0.01 
   8   4  -6 o  44.099     40.917      0.00    0.90631   0.01 
   5  -5   9 o  30.881     28.073     180.00   0.89066   0.01 
   5  -4  -9 o  623.804    579.069     0.00    0.90605   0.11 
   6  -4   8 o   1.379      1.376     180.00   0.89854   0.00 
   8   3   1 o   2.489      2.650     180.00   0.91284   0.00 
   6   0   7 o  310.182    327.092     0.00    0.91275   0.06 
   9  -2  -6 o  345.591    322.510     0.00    0.90522   0.06 
   4   9  -5 o  55.099     49.200     180.00   0.88952   0.01 
   5   2   7 o  310.239    326.568     0.00    0.91170   0.06 
   8   4  -1 o  526.728    559.050    180.00   0.91171   0.10 
   8  -3   5 o  186.998    177.265     0.00    0.90489   0.03 
   6   3   5 o  90.412     93.113      0.00    0.91137   0.02 
   9  -1   2 o   0.153      0.156      0.00    0.91128   0.00 
   9   2  -5 o   2.705      2.683     180.00   0.90400   0.00 
   9   1  -6 o  78.979     78.436     180.00   0.90391   0.01 
   2  -5  11 o  373.173    346.656     0.00    0.88813   0.06 
   2  10  -2 o  55.438     51.130     180.00   0.88823   0.01 
   8  -7   3 o  38.457     38.811      0.00    0.89605   0.01 
   4  -1 -11 o  410.470    412.121    180.00   0.89538   0.07 
   6   4   4 o  45.936     43.640     180.00   0.90974   0.01 
   4  -4  10 o   1.559      1.493      0.00    0.88705   0.00 
   3   7   4 o  22.127     22.140      0.00    0.90257   0.00 
   5 -10   0 o  50.383     48.258      0.00    0.88704   0.01 
   1  -3 -10 o  18.752     18.761      0.00    0.90233   0.00 
   2   3 -12 o  29.081     28.247     180.00   0.88663   0.01 
   8   0   4 o   1.978      1.863      0.00    0.90888   0.00 
   5  -9  -3 o  217.456    215.963    180.00   0.89473   0.04 
   8  -4   5 o  2633.122   2642.114    0.00    0.90181   0.47 
   4   2   8 o  171.066    161.350    180.00   0.90825   0.03 
   2   2 -12 o   5.229      5.283      0.00    0.88554   0.00 
   6   6   1 o  193.474    182.283     0.00    0.90789   0.04 
   7  -5  -7 o  393.981    393.253    180.00   0.90098   0.07 
   1   3 -12 o  317.569    321.652    180.00   0.88534   0.05 
   2   1  10 o  78.307     78.020     180.00   0.90082   0.01 
   3   9   0 o  64.143     63.219      0.00    0.89348   0.01 
   2  -2  11 o  88.286     86.222      0.00    0.89315   0.02 
   5   0 -11 o  106.416    100.577     0.00    0.89188   0.02 
   1   2  10 o   3.994      3.943      0.00    0.89899   0.00 
   8  -7  -3 o   1.164      1.084     180.00   0.89149   0.00 
   5  -2   9 o   7.366      6.716     180.00   0.89100   0.00 
   5  -8  -5 o  105.030    95.921     180.00   0.89105   0.02 
   7  -6  -6 o  140.001    140.400     0.00    0.89832   0.02 
   6  -9  -2 o   3.376      3.028     180.00   0.89044   0.00 
   9   2  -1 o  1130.851   1104.854    0.00    0.90438   0.20 
   2   7   5 o  233.413    241.139     0.00    0.89765   0.04 
   7   6  -2 o  179.187    185.611     0.00    0.89757   0.03 
   8  -5   5 o  358.102    316.513    180.00   0.89014   0.06 
   9  -5   2 o  1131.198   1165.038   180.00   0.89748   0.20 
   7   6  -6 o  27.887     24.506     180.00   0.88974   0.00 
   6  -5   8 o   0.559      0.497      0.00    0.88959   0.00 
   7  -8  -3 o  12.193     10.885      0.00    0.88898   0.00 
   1   0  11 o   2.564      2.317     180.00   0.88871   0.00 
   8  -2  -8 o  228.562    230.819     0.00    0.89595   0.04 
   5   6   3 o  350.178    350.247    180.00   0.90265   0.06 
   3  -9  -4 o  202.426    189.913     0.00    0.88764   0.04 
   6   2   6 o  193.431    194.784    180.00   0.90128   0.03 
   7   5  -8 o  434.833    414.809    180.00   0.88715   0.08 
   4  -3  10 o  210.944    202.685    180.00   0.88695   0.04 
   2  -9  -4 o  297.295    285.643     0.00    0.88695   0.05 
   4   7   3 o   0.002      0.002     180.00   0.89400   0.00 
   9  -4  -5 o  110.035    108.631    180.00   0.89387   0.02 
   4   8   1 o  20.901     20.644     180.00   0.89330   0.00 
   9  -6   0 o   0.163      0.161      0.00    0.89333   0.00 
   9  -6  -1 o  282.630    277.503    180.00   0.89311   0.05 
   1  10   0 o  581.870    593.886     0.00    0.88550   0.10 
   0   1  11 o  224.891    231.578    180.00   0.88533   0.04 
   8  -2   5 o  60.345     59.240     180.00   0.89910   0.01 
   5   8  -1 o  11.753     12.347     180.00   0.88501   0.00 
   7  -4  -8 o   7.333      7.042      0.00    0.89228   0.00 
   0  10   1 o  837.422    871.677     0.00    0.88480   0.14 
   7  -4   7 o  224.634    235.440    180.00   0.88453   0.04 
   7  -7  -5 o   0.080      0.084      0.00    0.88461   0.00 
   8  -5  -6 o  373.894    352.791    180.00   0.89182   0.07 
   3   2   9 o   2.139      1.980      0.00    0.89140   0.00 
   6  -6  -7 o   8.023      7.438     180.00   0.89141   0.00 
   2   3   9 o  19.394     17.840     180.00   0.89127   0.00 
   6   7  -1 o  455.698    405.491    180.00   0.89064   0.08 
   6  -2   8 o   6.019      5.375      0.00    0.89057   0.00 
   6   5   3 o  433.666    447.523     0.00    0.89657   0.08 
   1   6   7 o  102.796    88.497     180.00   0.88983   0.02 
   3  -6  -8 o  13.944     12.169      0.00    0.88944   0.00 
   6  -5  -8 o  224.947    197.135    180.00   0.88936   0.04 
   1   5   8 o  259.945    230.529     0.00    0.88887   0.05 
   9   1   1 o  57.013     58.071      0.00    0.89524   0.01 
   0   8   5 o  91.745     83.882     180.00   0.88837   0.02 
   9  -4   3 o  146.783    134.232     0.00    0.88836   0.03 
   9  -5  -4 o  63.991     58.550     180.00   0.88835   0.01 
   9  -3  -6 o  1434.375   1317.495    0.00    0.88827   0.25 
   3   0  10 o  370.811    342.935    180.00   0.88810   0.06 
   8  -4  -7 o  202.597    188.434     0.00    0.88793   0.04 
   2  -6  -8 o  84.834     80.092     180.00   0.88740   0.01 
   7   0   6 o  32.857     32.557     180.00   0.89370   0.01 
   9  -3   3 o  121.313    120.030     0.00    0.89373   0.02 
   9  -6   1 o   7.054      6.891     180.00   0.88658   0.00 
   7   5   1 o  18.451     18.271     180.00   0.89296   0.00 
   9   2  -6 o  22.274     22.240     180.00   0.88620   0.00 
   9   0   2 o  317.198    310.680    180.00   0.89260   0.06 
   9  -6  -2 o  352.267    355.669     0.00    0.88594   0.06 
   5   1   8 o  496.187    517.770    180.00   0.88541   0.09 
   7  -3   7 o   2.033      2.124      0.00    0.88505   0.00 
   3  -7  -7 o  189.234    199.317     0.00    0.88476   0.03 
   8  -6  -5 o  1258.541   1326.606    0.00    0.88468   0.22 
   8   4   0 o  300.319    272.332     0.00    0.89106   0.05 
   9  -2   3 o  43.075     37.994      0.00    0.89055   0.01 
   9   2   0 o  176.162    170.365     0.00    0.88674   0.03 
   8   2   3 o  16.691     17.621     180.00   0.88548   0.00 
   9   3  -3 o  40.107     42.273      0.00    0.88534   0.01 
   8  -1   5 o  103.915    110.651     0.00    0.88496   0.02 
_reflns_number_total                   2546
_reflns_limit_h_min                    0
_reflns_limit_h_max                    11
_reflns_limit_k_min                    -12
_reflns_limit_k_max                    12
_reflns_limit_l_min                    -13
_reflns_limit_l_max                    13
_reflns_d_resolution_high              0.885
_reflns_d_resolution_low               10.061
#--eof--eof--eof--eof--eof--eof--eof--eof--eof--eof--eof--eof--eof--eof--eof--#
