data_GON
#**************************************************************************
#
# CIF taken from the IZA-SC Database of Zeolite Structures
# Ch. Baerlocher and L.B. McCusker
# Database of Zeolite Structures: http://www.iza-structure.org/databases/ 
#
# The atom coordinates and the cell parameters were optimized with DLS76
# assuming a pure SiO2 composition.
#
#**************************************************************************

_cell_length_a                  16.5000(0)
_cell_length_b                  20.1850(0)
_cell_length_c                   5.0800(0)
_cell_angle_alpha               90.0000(0)
_cell_angle_beta                90.0000(0)
_cell_angle_gamma               90.0000(0)

_cell_volume 1811.82


_symmetry_space_group_name_H-M 'C m m m'
_symmetry_Int_Tables_number         65
_symmetry_cell_setting             orthorhombic



loop_
  _symmetry_equiv_pos_as_xyz
X,Y,Z
-X,-Y,Z
X,-Y,-Z
-X,Y,-Z
-X,-Y,-Z
X,Y,-Z
-X,Y,Z
X,-Y,Z
X+1/2,Y+1/2,Z
-X+1/2,-Y+1/2,Z
X+1/2,-Y+1/2,-Z
-X+1/2,Y+1/2,-Z
-X+1/2,-Y+1/2,-Z
X+1/2,Y+1/2,-Z
-X+1/2,Y+1/2,Z
X+1/2,-Y+1/2,Z


loop_
  _atom_site_label
_atom_site_type_symbol
    _atom_site_fract_x
  _atom_site_fract_y
  _atom_site_fract_z
T1   Si     0.31130   0.18980	0.50000 
T2   Si     0.18590   0.07580	0.50000 
T3   Si     0.09200   0.11990	0.00000 
T4   Si     0.09200   0.27700	0.00000 
O1   O      0.26347   0.12156	0.50000 
O2   O      0.36614   0.19340	0.24999 
O3   O      0.25000   0.25000	0.50000 
O4   O      0.21246   0.00000	0.50000 
O5   O      0.13388   0.09037	0.75006 
O6   O      0.00000   0.09956	0.00000 
O7   O      0.10022   0.19845	0.00000 
O8   O      0.00000   0.29734	0.00000 
