# generated using pymatgen
data_Er
_symmetry_space_group_name_H-M   'P 1'
_cell_length_a   6.17300000
_cell_length_b   9.04500000
_cell_length_c   14.65400000
_cell_angle_alpha   90.00000000
_cell_angle_beta   93.92000000
_cell_angle_gamma   90.00000000
_symmetry_Int_Tables_number   1
_chemical_formula_structural   Er
_chemical_formula_sum   Er4
_cell_volume   816.28873417
_cell_formula_units_Z   4
loop_
 _symmetry_equiv_pos_site_id
 _symmetry_equiv_pos_as_xyz
  1  'x, y, z'
loop_
 _atom_site_type_symbol
 _atom_site_label
 _atom_site_symmetry_multiplicity
 _atom_site_fract_x
 _atom_site_fract_y
 _atom_site_fract_z
 _atom_site_occupancy
  Er  Er0  1  0.07660000  0.08000000  0.11440000  1
  Er  Er1  1  0.92340000  0.58000000  0.38560000  1
  Er  Er2  1  0.92340000  0.92000000  0.88560000  1
  Er  Er3  1  0.07660000  0.42000000  0.61440000  1
