# generated using pymatgen
data_MgO5
_symmetry_space_group_name_H-M   'P 1'
_cell_length_a   6.84830000
_cell_length_b   21.05610000
_cell_length_c   21.05610000
_cell_angle_alpha   61.15970000
_cell_angle_beta   83.77620000
_cell_angle_gamma   96.22380000
_symmetry_Int_Tables_number   1
_chemical_formula_structural   MgO5
_chemical_formula_sum   'Mg1 O5'
_cell_volume   2598.57198324
_cell_formula_units_Z   1
loop_
 _symmetry_equiv_pos_site_id
 _symmetry_equiv_pos_as_xyz
  1  'x, y, z'
loop_
 _atom_site_type_symbol
 _atom_site_label
 _atom_site_symmetry_multiplicity
 _atom_site_fract_x
 _atom_site_fract_y
 _atom_site_fract_z
 _atom_site_occupancy
  Mg  Mg0  1  0.20303000  0.38131000  0.31505000  1
  O  O1  1  0.28366000  0.30595000  0.34717000  1
  O  O2  1  0.40495000  0.41071000  0.35834000  1
  O  O3  1  -0.01530000  0.35213000  0.40083000  1
  O  O4  1  -0.02229000  0.34688000  0.30595000  1
  O  O5  1  0.38553000  0.40083000  0.24704000  1
